pcf
* control data
             restart          estimation
         4       401         3         0        17
         3         3              single               point         1
   2.000000E+01  -3.000000E+00   3.000000E-01   1.000000E-02        -7
   1.000000E+01   1.000000E+01   1.000000E-03
   1.000000E-01
        20   1.000000E-02         3         3   1.000000E-02         3
         0         0         0
* singular value decomposition
         1
  10000000    1.000000E-06
1
* parameter groups
rch                    relative              1.0000000000E-02      0.0 switch                2.0000000000E+00      parabolic             1.0000000000E-05      5.0000000000E-01      smaller              
hk                     relative              1.0000000000E-02      0.0 switch                2.0000000000E+00      parabolic             1.0000000000E-05      5.0000000000E-01      smaller              
porosity               relative              1.0000000000E-02      0.0 switch                2.0000000000E+00      parabolic             1.0000000000E-05      5.0000000000E-01      smaller              
* parameter data
hk1                   log                   factor                5.0000000000E+00      5.0000000000E-02      5.0000000000E+02      hk                    1.0000000000E+00      0.0000000000E+00      1          
ne1                   fixed                 factor                1.0000000000E-02      5.0000000000E-03      2.0000000000E-02      porosity              1.0000000000E+00      0.0000000000E+00      1          
rch0                  log                   factor                1.0000000000E+00      5.0000000000E-01      2.0000000000E+00      rch                   1.0000000000E+00      0.0000000000E+00      1          
rch1                  fixed                 factor                1.0000000000E+00      5.0000000000E-01      2.0000000000E+00      rch                   1.0000000000E+00      0.0000000000E+00      1          
* observation groups
gage-1               
headwater            
part_time            
tailwater            
trgw-0-13-10         
trgw-0-15-16         
trgw-0-2-15          
trgw-0-2-9           
trgw-0-21-10         
trgw-0-22-15         
trgw-0-24-4          
trgw-0-26-6          
trgw-0-29-15         
trgw-0-3-8           
trgw-0-33-7          
trgw-0-34-10         
trgw-0-9-1           
* observation data
gage-1:3652.5         2.9432387170E+03      5.0000000000E-03      gage-1               
gage-1:3683.5         2.8153775133E+03      5.0000000000E-03      gage-1               
gage-1:3712.5         2.7491216599E+03      5.0000000000E-03      gage-1               
gage-1:3743.5         2.8167976416E+03      5.0000000000E-03      gage-1               
gage-1:3773.5         2.8923137054E+03      5.0000000000E-03      gage-1               
gage-1:3804.5         3.0232477767E+03      5.0000000000E-03      gage-1               
gage-1:3834.5         3.0341178439E+03      5.0000000000E-03      gage-1               
gage-1:3865.5         2.9821273956E+03      5.0000000000E-03      gage-1               
gage-1:3896.5         2.9108459753E+03      5.0000000000E-03      gage-1               
gage-1:3926.5         2.6488005668E+03      5.0000000000E-03      gage-1               
gage-1:3957.5         2.4287324886E+03      5.0000000000E-03      gage-1               
gage-1:3987.5         2.2041833303E+03      5.0000000000E-03      gage-1               
gage-1:4018.5         2.0066656278E+03      5.0000000000E-03      gage-1               
gage-1:4049.5         2.0774457805E+03      0.0000000000E+00      gage-1               
gage-1:4077.5         2.1363354229E+03      0.0000000000E+00      gage-1               
gage-1:4108.5         2.3023991299E+03      0.0000000000E+00      gage-1               
gage-1:4138.5         2.5040280612E+03      0.0000000000E+00      gage-1               
gage-1:4169.5         2.7142906032E+03      0.0000000000E+00      gage-1               
gage-1:4199.5         2.7290088343E+03      0.0000000000E+00      gage-1               
gage-1:4230.5         2.7637016739E+03      0.0000000000E+00      gage-1               
gage-1:4261.5         2.5533389134E+03      0.0000000000E+00      gage-1               
gage-1:4291.5         2.3191003582E+03      0.0000000000E+00      gage-1               
gage-1:4322.5         2.0322307557E+03      0.0000000000E+00      gage-1               
gage-1:4352.5         1.8669384494E+03      0.0000000000E+00      gage-1               
gage-1:4383.5         1.6275804899E+03      0.0000000000E+00      gage-1               
headwater:3652.5      -1.2716093728E+03     0.0000000000E+00      headwater            
headwater:3683.5      -1.1882613011E+03     0.0000000000E+00      headwater            
headwater:3712.5      -1.2781764094E+03     0.0000000000E+00      headwater            
headwater:3743.5      -1.4420040510E+03     0.0000000000E+00      headwater            
headwater:3773.5      -1.5769053308E+03     0.0000000000E+00      headwater            
headwater:3804.5      -1.6189626229E+03     0.0000000000E+00      headwater            
headwater:3834.5      -1.6200409933E+03     0.0000000000E+00      headwater            
headwater:3865.5      -1.3119217464E+03     0.0000000000E+00      headwater            
headwater:3896.5      -1.0136546346E+03     0.0000000000E+00      headwater            
headwater:3926.5      -7.1412937116E+02     0.0000000000E+00      headwater            
headwater:3957.5      -4.7058783342E+02     0.0000000000E+00      headwater            
headwater:3987.5      -3.4817724950E+02     0.0000000000E+00      headwater            
headwater:4018.5      -3.6940840066E+02     0.0000000000E+00      headwater            
headwater:4049.5      -5.1674201955E+02     0.0000000000E+00      headwater            
headwater:4077.5      -7.3493093224E+02     0.0000000000E+00      headwater            
headwater:4108.5      -9.9413846736E+02     0.0000000000E+00      headwater            
headwater:4138.5      -1.1927230889E+03     0.0000000000E+00      headwater            
headwater:4169.5      -1.2803492281E+03     0.0000000000E+00      headwater            
headwater:4199.5      -1.2819879538E+03     0.0000000000E+00      headwater            
headwater:4230.5      -1.0289574017E+03     0.0000000000E+00      headwater            
headwater:4261.5      -7.4997125884E+02     0.0000000000E+00      headwater            
headwater:4291.5      -4.6607709640E+02     0.0000000000E+00      headwater            
headwater:4322.5      -2.3632733193E+02     0.0000000000E+00      headwater            
headwater:4352.5      -1.2982880674E+02     0.0000000000E+00      headwater            
headwater:4383.5      -1.2719250565E+02     0.0000000000E+00      headwater            
part_time             3.1272297940E+04      0.0000000000E+00      part_time            
tailwater:3652.5      -9.3474488579E+02     0.0000000000E+00      tailwater            
tailwater:3683.5      -9.0358310543E+02     0.0000000000E+00      tailwater            
tailwater:3712.5      -9.7506293502E+02     0.0000000000E+00      tailwater            
tailwater:3743.5      -1.1004836341E+03     0.0000000000E+00      tailwater            
tailwater:3773.5      -1.2011014678E+03     0.0000000000E+00      tailwater            
tailwater:3804.5      -1.2252296390E+03     0.0000000000E+00      tailwater            
tailwater:3834.5      -1.2266870197E+03     0.0000000000E+00      tailwater            
tailwater:3865.5      -9.6254304749E+02     0.0000000000E+00      tailwater            
tailwater:3896.5      -7.2046389986E+02     0.0000000000E+00      tailwater            
tailwater:3926.5      -4.8262725452E+02     0.0000000000E+00      tailwater            
tailwater:3957.5      -2.9403107826E+02     0.0000000000E+00      tailwater            
tailwater:3987.5      -1.9286730895E+02     0.0000000000E+00      tailwater            
tailwater:4018.5      -1.9845421796E+02     0.0000000000E+00      tailwater            
tailwater:4049.5      -2.9974913903E+02     0.0000000000E+00      tailwater            
tailwater:4077.5      -4.5968133061E+02     0.0000000000E+00      tailwater            
tailwater:4108.5      -6.5015454420E+02     0.0000000000E+00      tailwater            
tailwater:4138.5      -7.9381983020E+02     0.0000000000E+00      tailwater            
tailwater:4169.5      -8.4826651769E+02     0.0000000000E+00      tailwater            
tailwater:4199.5      -8.5125145000E+02     0.0000000000E+00      tailwater            
tailwater:4230.5      -6.2428662740E+02     0.0000000000E+00      tailwater            
tailwater:4261.5      -3.9670256132E+02     0.0000000000E+00      tailwater            
tailwater:4291.5      -1.7113381117E+02     0.0000000000E+00      tailwater            
tailwater:4322.5      6.3011631474E+00      0.0000000000E+00      tailwater            
tailwater:4352.5      8.6918729185E+01      0.0000000000E+00      tailwater            
tailwater:4383.5      9.2911368132E+01      0.0000000000E+00      tailwater            
trgw-0-13-10:3652.5   3.4797358230E+01      0.0000000000E+00      trgw-0-13-10         
trgw-0-13-10:3683.5   3.4768493870E+01      0.0000000000E+00      trgw-0-13-10         
trgw-0-13-10:3712.5   3.4821230450E+01      0.0000000000E+00      trgw-0-13-10         
trgw-0-13-10:3743.5   3.4920982850E+01      0.0000000000E+00      trgw-0-13-10         
trgw-0-13-10:3773.5   3.5008383000E+01      0.0000000000E+00      trgw-0-13-10         
trgw-0-13-10:3804.5   3.5042354370E+01      0.0000000000E+00      trgw-0-13-10         
trgw-0-13-10:3834.5   3.4994916570E+01      0.0000000000E+00      trgw-0-13-10         
trgw-0-13-10:3865.5   3.4862262130E+01      0.0000000000E+00      trgw-0-13-10         
trgw-0-13-10:3896.5   3.4672915690E+01      0.0000000000E+00      trgw-0-13-10         
trgw-0-13-10:3926.5   3.4475155070E+01      0.0000000000E+00      trgw-0-13-10         
trgw-0-13-10:3957.5   3.4305498560E+01      0.0000000000E+00      trgw-0-13-10         
trgw-0-13-10:3987.5   3.4208903260E+01      0.0000000000E+00      trgw-0-13-10         
trgw-0-13-10:4018.5   3.4202438580E+01      0.0000000000E+00      trgw-0-13-10         
trgw-0-13-10:4049.5   3.4282508480E+01      0.0000000000E+00      trgw-0-13-10         
trgw-0-13-10:4077.5   3.4413068180E+01      0.0000000000E+00      trgw-0-13-10         
trgw-0-13-10:4108.5   3.4578075160E+01      0.0000000000E+00      trgw-0-13-10         
trgw-0-13-10:4138.5   3.4710506230E+01      0.0000000000E+00      trgw-0-13-10         
trgw-0-13-10:4169.5   3.4777151350E+01      0.0000000000E+00      trgw-0-13-10         
trgw-0-13-10:4199.5   3.4752190940E+01      0.0000000000E+00      trgw-0-13-10         
trgw-0-13-10:4230.5   3.4636457670E+01      0.0000000000E+00      trgw-0-13-10         
trgw-0-13-10:4261.5   3.4459979320E+01      0.0000000000E+00      trgw-0-13-10         
trgw-0-13-10:4291.5   3.4272364610E+01      0.0000000000E+00      trgw-0-13-10         
trgw-0-13-10:4322.5   3.4111575440E+01      0.0000000000E+00      trgw-0-13-10         
trgw-0-13-10:4352.5   3.4027084990E+01      0.0000000000E+00      trgw-0-13-10         
trgw-0-13-10:4383.5   3.4074068100E+01      0.0000000000E+00      trgw-0-13-10         
trgw-0-15-16:3652.5   3.4378744170E+01      0.0000000000E+00      trgw-0-15-16         
trgw-0-15-16:3683.5   3.4359507880E+01      0.0000000000E+00      trgw-0-15-16         
trgw-0-15-16:3712.5   3.4399717780E+01      0.0000000000E+00      trgw-0-15-16         
trgw-0-15-16:3743.5   3.4469788250E+01      0.0000000000E+00      trgw-0-15-16         
trgw-0-15-16:3773.5   3.4526044570E+01      0.0000000000E+00      trgw-0-15-16         
trgw-0-15-16:3804.5   3.4540115570E+01      0.0000000000E+00      trgw-0-15-16         
trgw-0-15-16:3834.5   3.4496313130E+01      0.0000000000E+00      trgw-0-15-16         
trgw-0-15-16:3865.5   3.4393826190E+01      0.0000000000E+00      trgw-0-15-16         
trgw-0-15-16:3896.5   3.4257763340E+01      0.0000000000E+00      trgw-0-15-16         
trgw-0-15-16:3926.5   3.4123022980E+01      0.0000000000E+00      trgw-0-15-16         
trgw-0-15-16:3957.5   3.4015440020E+01      0.0000000000E+00      trgw-0-15-16         
trgw-0-15-16:3987.5   3.3964397460E+01      0.0000000000E+00      trgw-0-15-16         
trgw-0-15-16:4018.5   3.3978579300E+01      0.0000000000E+00      trgw-0-15-16         
trgw-0-15-16:4049.5   3.4049942780E+01      0.0000000000E+00      trgw-0-15-16         
trgw-0-15-16:4077.5   3.4150371470E+01      0.0000000000E+00      trgw-0-15-16         
trgw-0-15-16:4108.5   3.4267379990E+01      0.0000000000E+00      trgw-0-15-16         
trgw-0-15-16:4138.5   3.4354176130E+01      0.0000000000E+00      trgw-0-15-16         
trgw-0-15-16:4169.5   3.4389448300E+01      0.0000000000E+00      trgw-0-15-16         
trgw-0-15-16:4199.5   3.4359653070E+01      0.0000000000E+00      trgw-0-15-16         
trgw-0-15-16:4230.5   3.4267776750E+01      0.0000000000E+00      trgw-0-15-16         
trgw-0-15-16:4261.5   3.4139681640E+01      0.0000000000E+00      trgw-0-15-16         
trgw-0-15-16:4291.5   3.4011222770E+01      0.0000000000E+00      trgw-0-15-16         
trgw-0-15-16:4322.5   3.3909072450E+01      0.0000000000E+00      trgw-0-15-16         
trgw-0-15-16:4352.5   3.3864828190E+01      0.0000000000E+00      trgw-0-15-16         
trgw-0-15-16:4383.5   3.3915567930E+01      0.0000000000E+00      trgw-0-15-16         
trgw-0-2-15:3652.5    3.4626503820E+01      0.0000000000E+00      trgw-0-2-15          
trgw-0-2-15:3683.5    3.4633560310E+01      0.0000000000E+00      trgw-0-2-15          
trgw-0-2-15:3712.5    3.4684382230E+01      0.0000000000E+00      trgw-0-2-15          
trgw-0-2-15:3743.5    3.4756157020E+01      0.0000000000E+00      trgw-0-2-15          
trgw-0-2-15:3773.5    3.4813334010E+01      0.0000000000E+00      trgw-0-2-15          
trgw-0-2-15:3804.5    3.4833239620E+01      0.0000000000E+00      trgw-0-2-15          
trgw-0-2-15:3834.5    3.4801430880E+01      0.0000000000E+00      trgw-0-2-15          
trgw-0-2-15:3865.5    3.4717696050E+01      0.0000000000E+00      trgw-0-2-15          
trgw-0-2-15:3896.5    3.4602294160E+01      0.0000000000E+00      trgw-0-2-15          
trgw-0-2-15:3926.5    3.4485344130E+01      0.0000000000E+00      trgw-0-2-15          
trgw-0-2-15:3957.5    3.4389158200E+01      0.0000000000E+00      trgw-0-2-15          
trgw-0-2-15:3987.5    3.4341747180E+01      0.0000000000E+00      trgw-0-2-15          
trgw-0-2-15:4018.5    3.4351325510E+01      0.0000000000E+00      trgw-0-2-15          
trgw-0-2-15:4049.5    3.4411280490E+01      0.0000000000E+00      trgw-0-2-15          
trgw-0-2-15:4077.5    3.4497800890E+01      0.0000000000E+00      trgw-0-2-15          
trgw-0-2-15:4108.5    3.4600811570E+01      0.0000000000E+00      trgw-0-2-15          
trgw-0-2-15:4138.5    3.4679743570E+01      0.0000000000E+00      trgw-0-2-15          
trgw-0-2-15:4169.5    3.4715754570E+01      0.0000000000E+00      trgw-0-2-15          
trgw-0-2-15:4199.5    3.4695400400E+01      0.0000000000E+00      trgw-0-2-15          
trgw-0-2-15:4230.5    3.4620764510E+01      0.0000000000E+00      trgw-0-2-15          
trgw-0-2-15:4261.5    3.4512706860E+01      0.0000000000E+00      trgw-0-2-15          
trgw-0-2-15:4291.5    3.4401877670E+01      0.0000000000E+00      trgw-0-2-15          
trgw-0-2-15:4322.5    3.4311236700E+01      0.0000000000E+00      trgw-0-2-15          
trgw-0-2-15:4352.5    3.4268675850E+01      0.0000000000E+00      trgw-0-2-15          
trgw-0-2-15:4383.5    3.4307289910E+01      0.0000000000E+00      trgw-0-2-15          
trgw-0-2-9:3652.5     3.5594706870E+01      0.0000000000E+00      trgw-0-2-9           
trgw-0-2-9:3683.5     3.5608652650E+01      0.0000000000E+00      trgw-0-2-9           
trgw-0-2-9:3712.5     3.5696182650E+01      0.0000000000E+00      trgw-0-2-9           
trgw-0-2-9:3743.5     3.5829616980E+01      0.0000000000E+00      trgw-0-2-9           
trgw-0-2-9:3773.5     3.5948796980E+01      0.0000000000E+00      trgw-0-2-9           
trgw-0-2-9:3804.5     3.6012429340E+01      0.0000000000E+00      trgw-0-2-9           
trgw-0-2-9:3834.5     3.5986041160E+01      0.0000000000E+00      trgw-0-2-9           
trgw-0-2-9:3865.5     3.5861738060E+01      0.0000000000E+00      trgw-0-2-9           
trgw-0-2-9:3896.5     3.5664809950E+01      0.0000000000E+00      trgw-0-2-9           
trgw-0-2-9:3926.5     3.5445461380E+01      0.0000000000E+00      trgw-0-2-9           
trgw-0-2-9:3957.5     3.5242763050E+01      0.0000000000E+00      trgw-0-2-9           
trgw-0-2-9:3987.5     3.5114928290E+01      0.0000000000E+00      trgw-0-2-9           
trgw-0-2-9:4018.5     3.5084027780E+01      0.0000000000E+00      trgw-0-2-9           
trgw-0-2-9:4049.5     3.5151062950E+01      0.0000000000E+00      trgw-0-2-9           
trgw-0-2-9:4077.5     3.5281275400E+01      0.0000000000E+00      trgw-0-2-9           
trgw-0-2-9:4108.5     3.5459241620E+01      0.0000000000E+00      trgw-0-2-9           
trgw-0-2-9:4138.5     3.5613124700E+01      0.0000000000E+00      trgw-0-2-9           
trgw-0-2-9:4169.5     3.5704772630E+01      0.0000000000E+00      trgw-0-2-9           
trgw-0-2-9:4199.5     3.5699611610E+01      0.0000000000E+00      trgw-0-2-9           
trgw-0-2-9:4230.5     3.5592812270E+01      0.0000000000E+00      trgw-0-2-9           
trgw-0-2-9:4261.5     3.5410428770E+01      0.0000000000E+00      trgw-0-2-9           
trgw-0-2-9:4291.5     3.5203448330E+01      0.0000000000E+00      trgw-0-2-9           
trgw-0-2-9:4322.5     3.5012285740E+01      0.0000000000E+00      trgw-0-2-9           
trgw-0-2-9:4352.5     3.4895070360E+01      0.0000000000E+00      trgw-0-2-9           
trgw-0-2-9:4383.5     3.4914950530E+01      0.0000000000E+00      trgw-0-2-9           
trgw-0-21-10:3652.5   3.4713368180E+01      0.0000000000E+00      trgw-0-21-10         
trgw-0-21-10:3683.5   3.4679022890E+01      0.0000000000E+00      trgw-0-21-10         
trgw-0-21-10:3712.5   3.4726236310E+01      0.0000000000E+00      trgw-0-21-10         
trgw-0-21-10:3743.5   3.4822797870E+01      0.0000000000E+00      trgw-0-21-10         
trgw-0-21-10:3773.5   3.4909527080E+01      0.0000000000E+00      trgw-0-21-10         
trgw-0-21-10:3804.5   3.4943884160E+01      0.0000000000E+00      trgw-0-21-10         
trgw-0-21-10:3834.5   3.4896112350E+01      0.0000000000E+00      trgw-0-21-10         
trgw-0-21-10:3865.5   3.4760461120E+01      0.0000000000E+00      trgw-0-21-10         
trgw-0-21-10:3896.5   3.4564751810E+01      0.0000000000E+00      trgw-0-21-10         
trgw-0-21-10:3926.5   3.4357864640E+01      0.0000000000E+00      trgw-0-21-10         
trgw-0-21-10:3957.5   3.4176889880E+01      0.0000000000E+00      trgw-0-21-10         
trgw-0-21-10:3987.5   3.4028370510E+01      0.0000000000E+00      trgw-0-21-10         
trgw-0-21-10:4018.5   3.3969933990E+01      0.0000000000E+00      trgw-0-21-10         
trgw-0-21-10:4049.5   3.4011485800E+01      0.0000000000E+00      trgw-0-21-10         
trgw-0-21-10:4077.5   3.4118195230E+01      0.0000000000E+00      trgw-0-21-10         
trgw-0-21-10:4108.5   3.4267409790E+01      0.0000000000E+00      trgw-0-21-10         
trgw-0-21-10:4138.5   3.4391602280E+01      0.0000000000E+00      trgw-0-21-10         
trgw-0-21-10:4169.5   3.4453823330E+01      0.0000000000E+00      trgw-0-21-10         
trgw-0-21-10:4199.5   3.4425488870E+01      0.0000000000E+00      trgw-0-21-10         
trgw-0-21-10:4230.5   3.4304792750E+01      0.0000000000E+00      trgw-0-21-10         
trgw-0-21-10:4261.5   3.4120481920E+01      0.0000000000E+00      trgw-0-21-10         
trgw-0-21-10:4291.5   3.3922541200E+01      0.0000000000E+00      trgw-0-21-10         
trgw-0-21-10:4322.5   3.3749295940E+01      0.0000000000E+00      trgw-0-21-10         
trgw-0-21-10:4352.5   3.3652848620E+01      0.0000000000E+00      trgw-0-21-10         
trgw-0-21-10:4383.5   3.3690121090E+01      0.0000000000E+00      trgw-0-21-10         
trgw-0-22-15:3652.5   3.4239559320E+01      0.0000000000E+00      trgw-0-22-15         
trgw-0-22-15:3683.5   3.4205825110E+01      0.0000000000E+00      trgw-0-22-15         
trgw-0-22-15:3712.5   3.4240510920E+01      0.0000000000E+00      trgw-0-22-15         
trgw-0-22-15:3743.5   3.4303633920E+01      0.0000000000E+00      trgw-0-22-15         
trgw-0-22-15:3773.5   3.4354764400E+01      0.0000000000E+00      trgw-0-22-15         
trgw-0-22-15:3804.5   3.4368288110E+01      0.0000000000E+00      trgw-0-22-15         
trgw-0-22-15:3834.5   3.4330070430E+01      0.0000000000E+00      trgw-0-22-15         
trgw-0-22-15:3865.5   3.4237273460E+01      0.0000000000E+00      trgw-0-22-15         
trgw-0-22-15:3896.5   3.4113286390E+01      0.0000000000E+00      trgw-0-22-15         
trgw-0-22-15:3926.5   3.3989117750E+01      0.0000000000E+00      trgw-0-22-15         
trgw-0-22-15:3957.5   3.3888053500E+01      0.0000000000E+00      trgw-0-22-15         
trgw-0-22-15:3987.5   3.3831120710E+01      0.0000000000E+00      trgw-0-22-15         
trgw-0-22-15:4018.5   3.3830545480E+01      0.0000000000E+00      trgw-0-22-15         
trgw-0-22-15:4049.5   3.3883325120E+01      0.0000000000E+00      trgw-0-22-15         
trgw-0-22-15:4077.5   3.3966004150E+01      0.0000000000E+00      trgw-0-22-15         
trgw-0-22-15:4108.5   3.4065968440E+01      0.0000000000E+00      trgw-0-22-15         
trgw-0-22-15:4138.5   3.4141440310E+01      0.0000000000E+00      trgw-0-22-15         
trgw-0-22-15:4169.5   3.4172174760E+01      0.0000000000E+00      trgw-0-22-15         
trgw-0-22-15:4199.5   3.4145371340E+01      0.0000000000E+00      trgw-0-22-15         
trgw-0-22-15:4230.5   3.4061698300E+01      0.0000000000E+00      trgw-0-22-15         
trgw-0-22-15:4261.5   3.3944578040E+01      0.0000000000E+00      trgw-0-22-15         
trgw-0-22-15:4291.5   3.3825795280E+01      0.0000000000E+00      trgw-0-22-15         
trgw-0-22-15:4322.5   3.3729284150E+01      0.0000000000E+00      trgw-0-22-15         
trgw-0-22-15:4352.5   3.3684557030E+01      0.0000000000E+00      trgw-0-22-15         
trgw-0-22-15:4383.5   3.3724906990E+01      0.0000000000E+00      trgw-0-22-15         
trgw-0-24-4:3652.5    3.5452833800E+01      0.0000000000E+00      trgw-0-24-4          
trgw-0-24-4:3683.5    3.5436126720E+01      0.0000000000E+00      trgw-0-24-4          
trgw-0-24-4:3712.5    3.5500678330E+01      0.0000000000E+00      trgw-0-24-4          
trgw-0-24-4:3743.5    3.5624531420E+01      0.0000000000E+00      trgw-0-24-4          
trgw-0-24-4:3773.5    3.5744618900E+01      0.0000000000E+00      trgw-0-24-4          
trgw-0-24-4:3804.5    3.5811765170E+01      0.0000000000E+00      trgw-0-24-4          
trgw-0-24-4:3834.5    3.5782972280E+01      0.0000000000E+00      trgw-0-24-4          
trgw-0-24-4:3865.5    3.5643605820E+01      0.0000000000E+00      trgw-0-24-4          
trgw-0-24-4:3896.5    3.5417115390E+01      0.0000000000E+00      trgw-0-24-4          
trgw-0-24-4:3926.5    3.5157840000E+01      0.0000000000E+00      trgw-0-24-4          
trgw-0-24-4:3957.5    3.4908181920E+01      0.0000000000E+00      trgw-0-24-4          
trgw-0-24-4:3987.5    3.3806381330E+01      0.0000000000E+00      trgw-0-24-4          
trgw-0-24-4:4018.5    3.3526387390E+01      0.0000000000E+00      trgw-0-24-4          
trgw-0-24-4:4049.5    3.3454121660E+01      0.0000000000E+00      trgw-0-24-4          
trgw-0-24-4:4077.5    3.3507655100E+01      0.0000000000E+00      trgw-0-24-4          
trgw-0-24-4:4108.5    3.3642072760E+01      0.0000000000E+00      trgw-0-24-4          
trgw-0-24-4:4138.5    3.3777924850E+01      0.0000000000E+00      trgw-0-24-4          
trgw-0-24-4:4169.5    3.3860947110E+01      0.0000000000E+00      trgw-0-24-4          
trgw-0-24-4:4199.5    3.3843810860E+01      0.0000000000E+00      trgw-0-24-4          
trgw-0-24-4:4230.5    3.3711650600E+01      0.0000000000E+00      trgw-0-24-4          
trgw-0-24-4:4261.5    3.3487632960E+01      0.0000000000E+00      trgw-0-24-4          
trgw-0-24-4:4291.5    3.3227693690E+01      0.0000000000E+00      trgw-0-24-4          
trgw-0-24-4:4322.5    3.2976452290E+01      0.0000000000E+00      trgw-0-24-4          
trgw-0-24-4:4352.5    3.2806265160E+01      0.0000000000E+00      trgw-0-24-4          
trgw-0-24-4:4383.5    3.2792129580E+01      0.0000000000E+00      trgw-0-24-4          
trgw-0-26-6:3652.5    3.7375797340E+01      0.0000000000E+00      trgw-0-26-6          
trgw-0-26-6:3683.5    3.7168419997E+01      1.0000000000E+00      trgw-0-26-6          
trgw-0-26-6:3712.5    3.7116489010E+01      1.0000000000E+00      trgw-0-26-6          
trgw-0-26-6:3743.5    3.7182889881E+01      1.0000000000E+00      trgw-0-26-6          
trgw-0-26-6:3773.5    3.7283325894E+01      1.0000000000E+00      trgw-0-26-6          
trgw-0-26-6:3804.5    3.7274370684E+01      1.0000000000E+00      trgw-0-26-6          
trgw-0-26-6:3834.5    3.7325037513E+01      1.0000000000E+00      trgw-0-26-6          
trgw-0-26-6:3865.5    3.7300457182E+01      1.0000000000E+00      trgw-0-26-6          
trgw-0-26-6:3896.5    3.7199736922E+01      1.0000000000E+00      trgw-0-26-6          
trgw-0-26-6:3926.5    3.6960034890E+01      1.0000000000E+00      trgw-0-26-6          
trgw-0-26-6:3957.5    3.6627731686E+01      1.0000000000E+00      trgw-0-26-6          
trgw-0-26-6:3987.5    3.6385461661E+01      1.0000000000E+00      trgw-0-26-6          
trgw-0-26-6:4018.5    3.6156393892E+01      1.0000000000E+00      trgw-0-26-6          
trgw-0-26-6:4049.5    3.6055515017E+01      0.0000000000E+00      trgw-0-26-6          
trgw-0-26-6:4077.5    3.5982402194E+01      0.0000000000E+00      trgw-0-26-6          
trgw-0-26-6:4108.5    3.5906340639E+01      0.0000000000E+00      trgw-0-26-6          
trgw-0-26-6:4138.5    3.6007123169E+01      0.0000000000E+00      trgw-0-26-6          
trgw-0-26-6:4169.5    3.6090146042E+01      0.0000000000E+00      trgw-0-26-6          
trgw-0-26-6:4199.5    3.6217937266E+01      0.0000000000E+00      trgw-0-26-6          
trgw-0-26-6:4230.5    3.6271645306E+01      0.0000000000E+00      trgw-0-26-6          
trgw-0-26-6:4261.5    3.6145726246E+01      0.0000000000E+00      trgw-0-26-6          
trgw-0-26-6:4291.5    3.5769419792E+01      0.0000000000E+00      trgw-0-26-6          
trgw-0-26-6:4322.5    3.5384747702E+01      0.0000000000E+00      trgw-0-26-6          
trgw-0-26-6:4352.5    3.5055236154E+01      0.0000000000E+00      trgw-0-26-6          
trgw-0-26-6:4383.5    3.4833151858E+01      0.0000000000E+00      trgw-0-26-6          
trgw-0-29-15:3652.5   3.4166172930E+01      0.0000000000E+00      trgw-0-29-15         
trgw-0-29-15:3683.5   3.4156127400E+01      0.0000000000E+00      trgw-0-29-15         
trgw-0-29-15:3712.5   3.4195098180E+01      0.0000000000E+00      trgw-0-29-15         
trgw-0-29-15:3743.5   3.4258478980E+01      0.0000000000E+00      trgw-0-29-15         
trgw-0-29-15:3773.5   3.4308607310E+01      0.0000000000E+00      trgw-0-29-15         
trgw-0-29-15:3804.5   3.4320757020E+01      0.0000000000E+00      trgw-0-29-15         
trgw-0-29-15:3834.5   3.4281865320E+01      0.0000000000E+00      trgw-0-29-15         
trgw-0-29-15:3865.5   3.4189079130E+01      0.0000000000E+00      trgw-0-29-15         
trgw-0-29-15:3896.5   3.4066511050E+01      0.0000000000E+00      trgw-0-29-15         
trgw-0-29-15:3926.5   3.3944639690E+01      0.0000000000E+00      trgw-0-29-15         
trgw-0-29-15:3957.5   3.3846299250E+01      0.0000000000E+00      trgw-0-29-15         
trgw-0-29-15:3987.5   3.3793158980E+01      0.0000000000E+00      trgw-0-29-15         
trgw-0-29-15:4018.5   3.3795320800E+01      0.0000000000E+00      trgw-0-29-15         
trgw-0-29-15:4049.5   3.3848672040E+01      0.0000000000E+00      trgw-0-29-15         
trgw-0-29-15:4077.5   3.3930141450E+01      0.0000000000E+00      trgw-0-29-15         
trgw-0-29-15:4108.5   3.4027123180E+01      0.0000000000E+00      trgw-0-29-15         
trgw-0-29-15:4138.5   3.4098971990E+01      0.0000000000E+00      trgw-0-29-15         
trgw-0-29-15:4169.5   3.4126168190E+01      0.0000000000E+00      trgw-0-29-15         
trgw-0-29-15:4199.5   3.4097103430E+01      0.0000000000E+00      trgw-0-29-15         
trgw-0-29-15:4230.5   3.4012324680E+01      0.0000000000E+00      trgw-0-29-15         
trgw-0-29-15:4261.5   3.3895690460E+01      0.0000000000E+00      trgw-0-29-15         
trgw-0-29-15:4291.5   3.3778368450E+01      0.0000000000E+00      trgw-0-29-15         
trgw-0-29-15:4322.5   3.3683762830E+01      0.0000000000E+00      trgw-0-29-15         
trgw-0-29-15:4352.5   3.3640773080E+01      0.0000000000E+00      trgw-0-29-15         
trgw-0-29-15:4383.5   3.3681996300E+01      0.0000000000E+00      trgw-0-29-15         
trgw-0-3-8:3652.5     3.8030891599E+01      0.0000000000E+00      trgw-0-3-8           
trgw-0-3-8:3683.5     3.8006539202E+01      1.0000000000E+00      trgw-0-3-8           
trgw-0-3-8:3712.5     3.8043373703E+01      1.0000000000E+00      trgw-0-3-8           
trgw-0-3-8:3743.5     3.8117404132E+01      1.0000000000E+00      trgw-0-3-8           
trgw-0-3-8:3773.5     3.8189833533E+01      1.0000000000E+00      trgw-0-3-8           
trgw-0-3-8:3804.5     3.8310318662E+01      1.0000000000E+00      trgw-0-3-8           
trgw-0-3-8:3834.5     3.8418709410E+01      1.0000000000E+00      trgw-0-3-8           
trgw-0-3-8:3865.5     3.8403344916E+01      1.0000000000E+00      trgw-0-3-8           
trgw-0-3-8:3896.5     3.8337150264E+01      1.0000000000E+00      trgw-0-3-8           
trgw-0-3-8:3926.5     3.8171892755E+01      1.0000000000E+00      trgw-0-3-8           
trgw-0-3-8:3957.5     3.7933107229E+01      1.0000000000E+00      trgw-0-3-8           
trgw-0-3-8:3987.5     3.7764239180E+01      1.0000000000E+00      trgw-0-3-8           