BEGIN Options
  TIME_UNITS  days
END Options

BEGIN Dimensions
  NPER  732
END Dimensions

BEGIN PERIODDATA
       3652.50000  1       1.00000000  NSTP TSMULT
       1.00000000  1       1.00000000  PERLEN NSTP TSMULT
       1.00000000  1       1.00000000  PERLEN NSTP TSMULT
       1.00000000  1       1.00000000  PERLEN NSTP TSMULT
       1.00000000  1       1.00000000  PERLEN NSTP TSMULT
       1.00000000  1       1.00000000  PERLEN NSTP TSMULT
       1.00000000  1       1.00000000  PERLEN NSTP TSMULT
       1.00000000  1       1.00000000  PERLEN NSTP TSMULT
       1.00000000  1       1.00000000  PERLEN NSTP TSMULT
       1.00000000  1       1.00000000  PERLEN NSTP TSMULT
       1.00000000  1       1.00000000  PERLEN NSTP TSMULT
       1.00000000  1       1.00000000  PERLEN NSTP TSMULT
       1.00000000  1       1.00000000  PERLEN NSTP TSMULT
       1.00000000  1       1.00000000  PERLEN NSTP TSMULT
       1.00000000  1       1.00000000  PERLEN NSTP TSMULT
       1.00000000  1       1.00000000  PERLEN NSTP TSMULT
       1.00000000  1       1.00000000  PERLEN NSTP TSMULT
       1.00000000  1       1.00000000  PERLEN NSTP TSMULT
       1.00000000  1       1.00000000  PERLEN NSTP TSMULT
       1.00000000  1       1.00000000  PERLEN NSTP TSMULT
       1.00000000  1       1.00000000  PERLEN NSTP TSMULT
       1.00000000  1       1.00000000  PERLEN NSTP TSMULT
       1.00000000  1       1.00000000  PERLEN NSTP TSMULT
       1.00000000  1       1.00000000  PERLEN NSTP TSMULT
       1.00000000  1       1.00000000  PERLEN NSTP TSMULT
       1.00000000  1       1.00000000  PERLEN NSTP TSMULT
       1.00000000  1       1.00000000  PERLEN NSTP TSMULT
       1.00000000  1       1.00000000  PERLEN NSTP TSMULT
       1.00000000  1       1.00000000  PERLEN NSTP TSMULT
       1.00000000  1       1.00000000  PERLEN NSTP TSMULT
       1.00000000  1       1.00000000  PERLEN NSTP TSMULT
       1.00000000  1       1.00000000  PERLEN NSTP TSMULT
       1.00000000  1       1.00000000  PERLEN NSTP TSMULT
       1.00000000  1       1.00000000  PERLEN NSTP TSMULT
       1.00000000  1       1.00000000  PERLEN NSTP TSMULT
       1.00000000  1       1.00000000  PERLEN NSTP TSMULT
       1.00000000  1       1.00000000  PERLEN NSTP TSMULT
       1.00000000  1       1.00000000  PERLEN NSTP TSMULT
       1.00000000  1       1.00000000  PERLEN NSTP TSMULT
       1.00000000  1       1.00000000  PERLEN NSTP TSMULT
       1.00000000  1       1.00000000  PERLEN NSTP TSMULT
       1.00000000  1       1.00000000  PERLEN NSTP TSMULT
       1.00000000  1       1.00000000  PERLEN NSTP TSMULT
       1.00000000  1       1.00000000  PERLEN NSTP TSMULT
       1.00000000  1       1.00000000  PERLEN NSTP TSMULT
       1.00000000  1       1.00000000  PERLEN NSTP TSMULT
       1.00000000  1       1.00000000  PERLEN NSTP TSMULT
       1.00000000  1       1.00000000  PERLEN NSTP TSMULT
       1.00000000  1       1.00000000  PERLEN NSTP TSMULT
       1.00000000  1       1.00000000  PERLEN NSTP TSMULT
       1.00000000  1       1.00000000  PERLEN NSTP TSMULT
       1.00000000  1       1.00000000  PERLEN NSTP TSMULT
       1.00000000  1       1.00000000  PERLEN NSTP TSMULT
       1.00000000  1       1.00000000  PERLEN NSTP TSMULT
       1.00000000  1       1.00000000  PERLEN NSTP TSMULT
       1.00000000  1       1.00000000  PERLEN NSTP TSMULT
       1.00000000  1       1.00000000  PERLEN NSTP TSMULT
       1.00000000  1       1.00000000  PERLEN NSTP TSMULT
       1.00000000  1       1.00000000  PERLEN NSTP TSMULT
       1.00000000  1       1.00000000  PERLEN NSTP TSMULT
       1.00000000  1       1.00000000  PERLEN NSTP TSMULT
       1.00000000  1       1.00000000  PERLEN NSTP TSMULT
       1.00000000  1       1.00000000  PERLEN NSTP TSMULT
       1.00000000  1       1.00000000  PERLEN NSTP TSMULT
       1.00000000  1       1.00000000  PERLEN NSTP TSMULT
       1.00000000  1       1.00000000  PERLEN NSTP TSMULT
       1.00000000  1       1.00000000  PERLEN NSTP TSMULT
       1.00000000  1       1.00000000  PERLEN NSTP TSMULT
       1.00000000  1       1.00000000  PERLEN NSTP TSMULT
       1.00000000  1       1.00000000  PERLEN NSTP TSMULT
       1.00000000  1       1.00000000  PERLEN NSTP TSMULT
       1.00000000  1       1.00000000  PERLEN NSTP TSMULT
       1.00000000  1       1.00000000  PERLEN NSTP TSMULT
       1.00000000  1       1.00000000  PERLEN NSTP TSMULT
       1.00000000  1       1.00000000  PERLEN NSTP TSMULT
       1.00000000  1       1.00000000  PERLEN NSTP TSMULT
       1.00000000  1       1.00000000  PERLEN NSTP TSMULT
       1.00000000  1       1.00000000  PERLEN NSTP TSMULT
       1.00000000  1       1.00000000  PERLEN NSTP TSMULT
       1.00000000  1       1.00000000  PERLEN NSTP TSMULT
       1.00000000  1       1.00000000  PERLEN NSTP TSMULT
       1.00000000  1       1.00000000  PERLEN NSTP TSMULT
       1.00000000  1       1.00000000  PERLEN NSTP TSMULT
       1.00000000  1       1.00000000  PERLEN NSTP TSMULT
       1.00000000  1       1.00000000  PERLEN NSTP TSMULT
       1.00000000  1       1.00000000  PERLEN NSTP TSMULT
       1.00000000  1       1.00000000  PERLEN NSTP TSMULT
       1.00000000  1       1.00000000  PERLEN NSTP TSMULT
       1.00000000  1       1.00000000  PERLEN NSTP TSMULT
       1.00000000  1       1.00000000  PERLEN NSTP TSMULT
       1.00000000  1       1.00000000  PERLEN NSTP TSMULT
       1.00000000  1       1.00000000  PERLEN NSTP TSMULT
       1.00000000  1       1.00000000  PERLEN NSTP TSMULT
       1.00000000  1       1.00000000  PERLEN NSTP TSMULT
       1.00000000  1       1.00000000  PERLEN NSTP TSMULT
       1.00000000  1       1.00000000  PERLEN NSTP TSMULT
       1.00000000  1       1.00000000  PERLEN NSTP TSMULT
       1.00000000  1       1.00000000  PERLEN NSTP TSMULT
       1.00000000  1       1.00000000  PERLEN NSTP TSMULT
       1.00000000  1       1.00000000  PERLEN NSTP TSMULT
       1.00000000  1       1.00000000  PERLEN NSTP TSMULT
       1.00000000  1       1.00000000  PERLEN NSTP TSMULT
       1.00000000  1       1.00000000  PERLEN NSTP TSMULT
       1.00000000  1       1.00000000  PERLEN NSTP TSMULT
       1.00000000  1       1.00000000  PERLEN NSTP TSMULT
       1.00000000  1       1.00000000  PERLEN NSTP TSMULT
       1.00000000  1       1.00000000  PERLEN NSTP TSMULT
       1.00000000  1       1.00000000  PERLEN NSTP TSMULT
       1.00000000  1       1.00000000  PERLEN NSTP TSMULT
       1.00000000  1       1.00000000  PERLEN NSTP TSMULT
       1.00000000  1       1.00000000  PERLEN NSTP TSMULT
       1.00000000  1       1.00000000  PERLEN NSTP TSMULT
       1.00000000  1       1.00000000  PERLEN NSTP TSMULT
       1.00000000  1       1.00000000  PERLEN NSTP TSMULT
       1.00000000  1       1.00000000  PERLEN NSTP TSMULT
       1.00000000  1       1.00000000  PERLEN NSTP TSMULT
       1.00000000  1       1.00000000  PERLEN NSTP TSMULT
       1.00000000  1       1.00000000  PERLEN NSTP TSMULT
       1.00000000  1       1.00000000  PERLEN NSTP TSMULT
       1.00000000  1       1.00000000  PERLEN NSTP TSMULT
       1.00000000  1       1.00000000  PERLEN NSTP TSMULT
       1.00000000  1       1.00000000  PERLEN NSTP TSMULT
       1.00000000  1       1.00000000  PERLEN NSTP TSMULT
       1.00000000  1       1.00000000  PERLEN NSTP TSMULT
       1.00000000  1       1.00000000  PERLEN NSTP TSMULT
       1.00000000  1       1.00000000  PERLEN NSTP TSMULT
       1.00000000  1       1.00000000  PERLEN NSTP TSMULT
       1.00000000  1       1.00000000  PERLEN NSTP TSMULT
       1.00000000  1       1.00000000  PERLEN NSTP TSMULT
       1.00000000  1       1.00000000  PERLEN NSTP TSMULT
       1.00000000  1       1.00000000  PERLEN NSTP TSMULT
       1.00000000  1       1.00000000  PERLEN NSTP TSMULT
       1.00000000  1       1.00000000  PERLEN NSTP TSMULT
       1.00000000  1       1.00000000  PERLEN NSTP TSMULT
       1.00000000  1       1.00000000  PERLEN NSTP TSMULT
       1.00000000  1       1.00000000  PERLEN NSTP TSMULT
       1.00000000  1       1.00000000  PERLEN NSTP TSMULT
       1.00000000  1       1.00000000  PERLEN NSTP TSMULT
       1.00000000  1       1.00000000  PERLEN NSTP TSMULT
       1.00000000  1       1.00000000  PERLEN NSTP TSMULT
       1.00000000  1       1.00000000  PERLEN NSTP TSMULT
       1.00000000  1       1.00000000  PERLEN NSTP TSMULT
       1.00000000  1       1.00000000  PERLEN NSTP TSMULT
       1.00000000  1       1.00000000  PERLEN NSTP TSMULT
       1.00000000  1       1.00000000  PERLEN NSTP TSMULT
       1.00000000  1       1.00000000  PERLEN NSTP TSMULT
       1.00000000  1       1.00000000  PERLEN NSTP TSMULT
       1.00000000  1       1.00000000  PERLEN NSTP TSMULT
       1.00000000  1       1.00000000  PERLEN NSTP TSMULT
       1.00000000  1       1.00000000  PERLEN NSTP TSMULT
       1.00000000  1       1.00000000  PERLEN NSTP TSMULT
       1.00000000  1       1.00000000  PERLEN NSTP TSMULT
       1.00000000  1       1.00000000  PERLEN NSTP TSMULT
       1.00000000  1       1.00000000  PERLEN NSTP TSMULT
       1.00000000  1       1.00000000  PERLEN NSTP TSMULT
       1.00000000  1       1.00000000  PERLEN NSTP TSMULT
       1.00000000  1       1.00000000  PERLEN NSTP TSMULT
       1.00000000  1       1.00000000  PERLEN NSTP TSMULT
       1.00000000  1       1.00000000  PERLEN NSTP TSMULT
       1.00000000  1       1.00000000  PERLEN NSTP TSMULT
       1.00000000  1       1.00000000  PERLEN NSTP TSMULT
       1.00000000  1       1.00000000  PERLEN NSTP TSMULT
       1.00000000  1       1.00000000  PERLEN NSTP TSMULT
       1.00000000  1       1.00000000  PERLEN NSTP TSMULT
       1.00000000  1       1.00000000  PERLEN NSTP TSMULT
       1.00000000  1       1.00000000  PERLEN NSTP TSMULT
       1.00000000  1       1.00000000  PERLEN NSTP TSMULT
       1.00000000  1       1.00000000  PERLEN NSTP TSMULT
       1.00000000  1       1.00000000  PERLEN NSTP TSMULT
       1.00000000  1       1.00000000  PERLEN NSTP TSMULT
       1.00000000  1       1.00000000  PERLEN NSTP TSMULT
       1.00000000  1       1.00000000  PERLEN NSTP TSMULT
       1.00000000  1       1.00000000  PERLEN NSTP TSMULT
       1.00000000  1       1.00000000  PERLEN NSTP TSMULT
       1.00000000  1       1.00000000  PERLEN NSTP TSMULT
       1.00000000  1       1.00000000  PERLEN NSTP TSMULT
       1.00000000  1       1.00000000  PERLEN NSTP TSMULT
       1.00000000  1       1.00000000  PERLEN NSTP TSMULT
       1.00000000  1       1.00000000  PERLEN NSTP TSMULT
       1.00000000  1       1.00000000  PERLEN NSTP TSMULT
       1.00000000  1       1.00000000  PERLEN NSTP TSMULT
       1.00000000  1       1.00000000  PERLEN NSTP TSMULT
       1.00000000  1       1.00000000  PERLEN NSTP TSMULT
       1.00000000  1       1.00000000  PERLEN NSTP TSMULT
       1.00000000  1       1.00000000  PERLEN NSTP TSMULT
       1.00000000  1       1.00000000  PERLEN NSTP TSMULT
       1.00000000  1       1.00000000  PERLEN NSTP TSMULT
       1.00000000  1       1.00000000  PERLEN NSTP TSMULT
       1.00000000  1       1.00000000  PERLEN NSTP TSMULT
       1.00000000  1       1.00000000  PERLEN NSTP TSMULT
       1.00000000  1       1.00000000  PERLEN NSTP TSMULT
       1.00000000  1       1.00000000  PERLEN NSTP TSMULT
       1.00000000  1       1.00000000  PERLEN NSTP TSMULT
       1.00000000  1       1.00000000  PERLEN NSTP TSMULT
       1.00000000  1       1.00000000  PERLEN NSTP TSMULT
       1.00000000  1       1.00000000  PERLEN NSTP TSMULT
       1.00000000  1       1.00000000  PERLEN NSTP TSMULT
       1.00000000  1       1.00000000  PERLEN NSTP TSMULT
       1.00000000  1       1.00000000  PERLEN NSTP TSMULT
       1.00000000  1       1.00000000  PERLEN NSTP TSMULT
       1.00000000  1       1.00000000  PERLEN NSTP TSMULT
       1.00000000  1       1.00000000  PERLEN NSTP TSMULT
       1.00000000  1       1.00000000  PERLEN NSTP TSMULT
       1.00000000  1       1.00000000  PERLEN NSTP TSMULT
       1.00000000  1       1.00000000  PERLEN NSTP TSMULT
       1.00000000  1       1.00000000  PERLEN NSTP TSMULT
       1.00000000  1       1.00000000  PERLEN NSTP TSMULT
       1.00000000  1       1.00000000  PERLEN NSTP TSMULT
       1.00000000  1       1.00000000  PERLEN NSTP TSMULT
       1.00000000  1       1.00000000  PERLEN NSTP TSMULT
       1.00000000  1       1.00000000  PERLEN NSTP TSMULT
       1.00000000  1       1.00000000  PERLEN NSTP TSMULT
       1.00000000  1       1.00000000  PERLEN NSTP TSMULT
       1.00000000  1       1.00000000  PERLEN NSTP TSMULT
       1.00000000  1       1.00000000  PERLEN NSTP TSMULT
       1.00000000  1       1.00000000  PERLEN NSTP TSMULT
       1.00000000  1       1.00000000  PERLEN NSTP TSMULT
       1.00000000  1       1.00000000  PERLEN NSTP TSMULT
       1.00000000  1       1.00000000  PERLEN NSTP TSMULT
       1.00000000  1       1.00000000  PERLEN NSTP TSMULT
       1.00000000  1       1.00000000  PERLEN NSTP TSMULT
       1.00000000  1       1.00000000  PERLEN NSTP TSMULT
       1.00000000  1       1.00000000  PERLEN NSTP TSMULT
       1.00000000  1       1.00000000  PERLEN NSTP TSMULT
       1.00000000  1       1.00000000  PERLEN NSTP TSMULT
       1.00000000  1       1.00000000  PERLEN NSTP TSMULT
       1.00000000  1       1.00000000  PERLEN NSTP TSMULT
       1.00000000  1       1.00000000  PERLEN NSTP TSMULT
       1.00000000  1       1.00000000  PERLEN NSTP TSMULT
       1.00000000  1       1.00000000  PERLEN NSTP TSMULT
       1.00000000  1       1.00000000  PERLEN NSTP TSMULT
       1.00000000  1       1.00000000  PERLEN NSTP TSMULT
       1.00000000  1       1.00000000  PERLEN NSTP TSMULT
       1.00000000  1       1.00000000  PERLEN NSTP TSMULT
       1.00000000  1       1.00000000  PERLEN NSTP TSMULT
       1.00000000  1       1.00000000  PERLEN NSTP TSMULT
       1.00000000  1       1.00000000  PERLEN NSTP TSMULT
       1.00000000  1       1.00000000  PERLEN NSTP TSMULT
       1.00000000  1       1.00000000  PERLEN NSTP TSMULT
       1.00000000  1       1.00000000  PERLEN NSTP TSMULT
       1.00000000  1       1.00000000  PERLEN NSTP TSMULT
       1.00000000  1       1.00000000  PERLEN NSTP TSMULT
       1.00000000  1       1.00000000  PERLEN NSTP TSMULT
       1.00000000  1       1.00000000  PERLEN NSTP TSMULT
       1.00000000  1       1.00000000  PERLEN NSTP TSMULT
       1.00000000  1       1.00000000  PERLEN NSTP TSMULT
       1.00000000  1       1.00000000  PERLEN NSTP TSMULT
       1.00000000  1       1.00000000  PERLEN NSTP TSMULT
       1.00000000  1       1.00000000  PERLEN NSTP TSMULT
       1.00000000  1       1.00000000  PERLEN NSTP TSMULT
       1.00000000  1       1.00000000  PERLEN NSTP TSMULT
       1.00000000  1       1.00000000  PERLEN NSTP TSMULT
       1.00000000  1       1.00000000  PERLEN NSTP TSMULT
       1.00000000  1       1.00000000  PERLEN NSTP TSMULT
       1.00000000  1       1.00000000  PERLEN NSTP TSMULT
       1.00000000  1       1.00000000  PERLEN NSTP TSMULT
       1.00000000  1       1.00000000  PERLEN NSTP TSMULT
       1.00000000  1       1.00000000  PERLEN NSTP TSMULT
       1.00000000  1       1.00000000  PERLEN NSTP TSMULT
       1.00000000  1       1.00000000  PERLEN NSTP TSMULT
       1.00000000  1       1.00000000  PERLEN NSTP TSMULT
       1.00000000  1       1.00000000  PERLEN NSTP TSMULT
       1.00000000  1       1.00000000  PERLEN NSTP TSMULT
       1.00000000  1       1.00000000  PERLEN NSTP TSMULT
       1.00000000  1       1.00000000  PERLEN NSTP TSMULT
       1.00000000  1       1.00000000  PERLEN NSTP TSMULT
       1.00000000  1       1.00000000  PERLEN NSTP TSMULT
       1.00000000  1       1.00000000  PERLEN NSTP TSMULT
       1.00000000  1       1.00000000  PERLEN NSTP TSMULT
       1.00000000  1       1.00000000  PERLEN NSTP TSMULT
       1.00000000  1       1.00000000  PERLEN NSTP TSMULT
       1.00000000  1       1.00000000  PERLEN NSTP TSMULT
       1.00000000  1       1.00000000  PERLEN NSTP TSMULT
       1.00000000  1       1.00000000  PERLEN NSTP TSMULT
       1.00000000  1       1.00000000  PERLEN NSTP TSMULT
       1.00000000  1       1.00000000  PERLEN NSTP TSMULT
       1.00000000  1       1.00000000  PERLEN NSTP TSMULT
       1.00000000  1       1.00000000  PERLEN NSTP TSMULT
       1.00000000  1       1.00000000  PERLEN NSTP TSMULT
       1.00000000  1       1.00000000  PERLEN NSTP TSMULT
       1.00000000  1       1.00000000  PERLEN NSTP TSMULT
       1.00000000  1       1.00000000  PERLEN NSTP TSMULT
       1.00000000  1       1.00000000  PERLEN NSTP TSMULT
       1.00000000  1       1.00000000  PERLEN NSTP TSMULT
       1.00000000  1       1.00000000  PERLEN NSTP TSMULT
       1.00000000  1       1.00000000  PERLEN NSTP TSMULT
       1.00000000  1       1.00000000  PERLEN NSTP TSMULT
       1.00000000  1       1.00000000  PERLEN NSTP TSMULT
       1.00000000  1       1.00000000  PERLEN NSTP TSMULT
       1.00000000  1       1.00000000  PERLEN NSTP TSMULT
       1.00000000  1       1.00000000  PERLEN NSTP TSMULT
       1.00000000  1       1.00000000  PERLEN NSTP TSMULT
       1.00000000  1       1.00000000  PERLEN NSTP TSMULT
       1.00000000  1       1.00000000  PERLEN NSTP TSMULT
       1.00000000  1       1.00000000  PERLEN NSTP TSMULT
       1.00000000  1       1.00000000  PERLEN NSTP TSMULT
       1.00000000  1       1.00000000  PERLEN NSTP TSMULT
       1.00000000  1       1.00000000  PERLEN NSTP TSMULT
       1.00000000  1       1.00000000  PERLEN NSTP TSMULT
       1.00000000  1       1.00000000  PERLEN NSTP TSMULT
       1.00000000  1       1.00000000  PERLEN NSTP TSMULT
       1.00000000  1       1.00000000  PERLEN NSTP TSMULT
       1.00000000  1       1.00000000  PERLEN NSTP TSMULT
       1.00000000  1       1.00000000  PERLEN NSTP TSMULT
       1.00000000  1       1.00000000  PERLEN NSTP TSMULT
       1.00000000  1       1.00000000  PERLEN NSTP TSMULT
       1.00000000  1       1.00000000  PERLEN NSTP TSMULT
       1.00000000  1       1.00000000  PERLEN NSTP TSMULT
       1.00000000  1       1.00000000  PERLEN NSTP TSMULT
       1.00000000  1       1.00000000  PERLEN NSTP TSMULT
       1.00000000  1       1.00000000  PERLEN NSTP TSMULT
       1.00000000  1       1.00000000  PERLEN NSTP TSMULT
       1.00000000  1       1.00000000  PERLEN NSTP TSMULT
       1.00000000  1       1.00000000  PERLEN NSTP TSMULT
       1.00000000  1       1.00000000  PERLEN NSTP TSMULT
       1.00000000  1       1.00000000  PERLEN NSTP TSMULT
       1.00000000  1       1.00000000  PERLEN NSTP TSMULT
       1.00000000  1       1.00000000  PERLEN NSTP TSMULT
       1.00000000  1       1.00000000  PERLEN NSTP TSMULT
       1.00000000  1       1.00000000  PERLEN NSTP TSMULT
       1.00000000  1       1.00000000  PERLEN NSTP TSMULT
       1.00000000  1       1.00000000  PERLEN NSTP TSMULT
       1.00000000  1       1.00000000  PERLEN NSTP TSMULT
       1.00000000  1       1.00000000  PERLEN NSTP TSMULT
       1.00000000  1       1.00000000  PERLEN NSTP TSMULT
       1.00000000  1       1.00000000  PERLEN NSTP TSMULT
       1.00000000  1       1.00000000  PERLEN NSTP TSMULT
       1.00000000  1       1.00000000  PERLEN NSTP TSMULT
       1.00000000  1       1.00000000  PERLEN NSTP TSMULT
       1.00000000  1       1.00000000  PERLEN NSTP TSMULT
       1.00000000  1       1.00000000  PERLEN NSTP TSMULT
       1.00000000  1       1.00000000  PERLEN NSTP TSMULT
       1.00000000  1       1.00000000  PERLEN NSTP TSMULT
       1.00000000  1       1.00000000  PERLEN NSTP TSMULT
       1.00000000  1       1.00000000  PERLEN NSTP TSMULT
       1.00000000  1       1.00000000  PERLEN NSTP TSMULT
       1.00000000  1       1.00000000  PERLEN NSTP TSMULT
       1.00000000  1       1.00000000  PERLEN NSTP TSMULT
       1.00000000  1       1.00000000  PERLEN NSTP TSMULT
       1.00000000  1       1.00000000  PERLEN NSTP TSMULT
       1.00000000  1       1.00000000  PERLEN NSTP TSMULT
       1.00000000  1       1.00000000  PERLEN NSTP TSMULT
       1.00000000  1       1.00000000  PERLEN NSTP TSMULT
       1.00000000  1       1.00000000  PERLEN NSTP TSMULT
       1.00000000  1       1.00000000  PERLEN NSTP TSMULT
       1.00000000  1       1.00000000  PERLEN NSTP TSMULT
       1.00000000  1       1.00000000  PERLEN NSTP TSMULT
       1.00000000  1       1.00000000  PERLEN NSTP TSMULT
       1.00000000  1       1.00000000  PERLEN NSTP TSMULT
       1.00000000  1       1.00000000  PERLEN NSTP TSMULT
       1.00000000  1       1.00000000  PERLEN NSTP TSMULT
       1.00000000  1       1.00000000  PERLEN NSTP TSMULT
       1.00000000  1       1.00000000  PERLEN NSTP TSMULT
       1.00000000  1       1.00000000  PERLEN NSTP TSMULT
       1.00000000  1       1.00000000  PERLEN NSTP TSMULT
       1.00000000  1       1.00000000  PERLEN NSTP TSMULT
       1.00000000  1       1.00000000  PERLEN NSTP TSMULT
       1.00000000  1       1.00000000  PERLEN NSTP TSMULT
       1.00000000  1       1.00000000  PERLEN NSTP TSMULT
       1.00000000  1       1.00000000  PERLEN NSTP TSMULT
       1.00000000  1       1.00000000  PERLEN NSTP TSMULT
       1.00000000  1       1.00000000  PERLEN NSTP TSMULT
       1.00000000  1       1.00000000  PERLEN NSTP TSMULT
       1.00000000  1       1.00000000  PERLEN NSTP TSMULT
       1.00000000  1       1.00000000  PERLEN NSTP TSMULT
       1.00000000  1       1.00000000  PERLEN NSTP TSMULT
       1.00000000  1       1.00000000  PERLEN NSTP TSMULT
       1.00000000  1       1.00000000  PERLEN NSTP TSMULT
       1.00000000  1       1.00000000  PERLEN NSTP TSMULT
       1.00000000  1       1.00000000  PERLEN NSTP TSMULT
       1.00000000  1       1.00000000  PERLEN NSTP TSMULT
       1.00000000  1       1.00000000  PERLEN NSTP TSMULT
       1.00000000  1       1.00000000  PERLEN NSTP TSMULT
       1.00000000  1       1.00000000  PERLEN NSTP TSMULT
       1.00000000  1       1.00000000  PERLEN NSTP TSMULT
       1.00000000  1       1.00000000  PERLEN NSTP TSMULT
       1.00000000  1       1.00000000  PERLEN NSTP TSMULT
       1.00000000  1       1.00000000  PERLEN NSTP TSMULT
       1.00000000  1       1.00000000  PERLEN NSTP TSMULT
       1.00000000  1       1.00000000  PERLEN NSTP TSMULT
       1.00000000  1       1.00000000  PERLEN NSTP TSMULT
       1.00000000  1       1.00000000  PERLEN NSTP TSMULT
       1.00000000  1       1.00000000  PERLEN NSTP TSMULT
       1.00000000  1       1.00000000  PERLEN NSTP TSMULT
       1.00000000  1       1.00000000  PERLEN NSTP TSMULT
       1.00000000  1       1.00000000  PERLEN NSTP TSMULT
       1.00000000  1       1.00000000  PERLEN NSTP TSMULT
       1.00000000  1       1.00000000  PERLEN NSTP TSMULT
       1.00000000  1       1.00000000  PERLEN NSTP TSMULT
       1.00000000  1       1.00000000  PERLEN NSTP TSMULT
       1.00000000  1       1.00000000  PERLEN NSTP TSMULT
       1.00000000  1       1.00000000  PERLEN NSTP TSMULT
       1.00000000  1       1.00000000  PERLEN NSTP TSMULT
       1.00000000  1       1.00000000  PERLEN NSTP TSMULT
       1.00000000  1       1.00000000  PERLEN NSTP TSMULT
       1.00000000  1       1.00000000  PERLEN NSTP TSMULT
       1.00000000  1       1.00000000  PERLEN NSTP TSMULT
       1.00000000  1       1.00000000  PERLEN NSTP TSMULT
       1.00000000  1       1.00000000  PERLEN NSTP TSMULT
       1.00000000  1       1.00000000  PERLEN NSTP TSMULT
       1.00000000  1       1.00000000  PERLEN NSTP TSMULT
       1.00000000  1       1.00000000  PERLEN NSTP TSMULT
       1.00000000  1       1.00000000  PERLEN NSTP TSMULT
       1.00000000  1       1.00000000  PERLEN NSTP TSMULT
       1.00000000  1       1.00000000  PERLEN NSTP TSMULT
       1.00000000  1       1.00000000  PERLEN NSTP TSMULT
       1.00000000  1       1.00000000  PERLEN NSTP TSMULT
       1.00000000  1       1.00000000  PERLEN NSTP TSMULT
       1.00000000  1       1.00000000  PERLEN NSTP TSMULT
       1.00000000  1       1.00000000  PERLEN NSTP TSMULT
       1.00000000  1       1.00000000  PERLEN NSTP TSMULT
       1.00000000  1       1.00000000  PERLEN NSTP TSMULT
       1.00000000  1       1.00000000  PERLEN NSTP TSMULT
       1.00000000  1       1.00000000  PERLEN NSTP TSMULT
       1.00000000  1       1.00000000  PERLEN NSTP TSMULT
       1.00000000  1       1.00000000  PERLEN NSTP TSMULT
       1.00000000  1       1.00000000  PERLEN NSTP TSMULT
       1.00000000  1       1.00000000  PERLEN NSTP TSMULT
       1.00000000  1       1.00000000  PERLEN NSTP TSMULT
       1.00000000  1       1.00000000  PERLEN NSTP TSMULT
       1.00000000  1       1.00000000  PERLEN NSTP TSMULT
       1.00000000  1       1.00000000  PERLEN NSTP TSMULT
       1.00000000  1       1.00000000  PERLEN NSTP TSMULT
       1.00000000  1       1.00000000  PERLEN NSTP TSMULT
       1.00000000  1       1.00000000  PERLEN NSTP TSMULT
       1.00000000  1       1.00000000  PERLEN NSTP TSMULT
       1.00000000  1       1.00000000  PERLEN NSTP TSMULT
       1.00000000  1       1.00000000  PERLEN NSTP TSMULT
       1.00000000  1       1.00000000  PERLEN NSTP TSMULT
       1.00000000  1       1.00000000  PERLEN NSTP TSMULT
       1.00000000  1       1.00000000  PERLEN NSTP TSMULT
       1.00000000  1       1.00000000  PERLEN NSTP TSMULT
       1.00000000  1       1.00000000  PERLEN NSTP TSMULT
       1.00000000  1       1.00000000  PERLEN NSTP TSMULT
       1.00000000  1       1.00000000  PERLEN NSTP TSMULT
       1.00000000  1       1.00000000  PERLEN NSTP TSMULT
       1.00000000  1       1.00000000  PERLEN NSTP TSMULT
       1.00000000  1       1.00000000  PERLEN NSTP TSMULT
       1.00000000  1       1.00000000  PERLEN NSTP TSMULT
       1.00000000  1       1.00000000  PERLEN NSTP TSMULT
       1.00000000  1       1.00000000  PERLEN NSTP TSMULT
       1.00000000  1       1.00000000  PERLEN NSTP TSMULT
       1.00000000  1       1.00000000  PERLEN NSTP TSMULT
       1.00000000  1       1.00000000  PERLEN NSTP TSMULT
       1.00000000  1       1.00000000  PERLEN NSTP TSMULT
       1.00000000  1       1.00000000  PERLEN NSTP TSMULT
       1.00000000  1       1.00000000  PERLEN NSTP TSMULT
       1.00000000  1       1.00000000  PERLEN NSTP TSMULT
       1.00000000  1       1.00000000  PERLEN NSTP TSMULT
       1.00000000  1       1.00000000  PERLEN NSTP TSMULT
       1.00000000  1       1.00000000  PERLEN NSTP TSMULT
       1.00000000  1       1.00000000  PERLEN NSTP TSMULT
       1.00000000  1       1.00000000  PERLEN NSTP TSMULT
       1.00000000  1       1.00000000  PERLEN NSTP TSMULT
       1.00000000  1       1.00000000  PERLEN NSTP TSMULT
       1.00000000  1       1.00000000  PERLEN NSTP TSMULT
       1.00000000  1       1.00000000  PERLEN NSTP TSMULT
       1.00000000  1       1.00000000  PERLEN NSTP TSMULT
       1.00000000  1       1.00000000  PERLEN NSTP TSMULT
       1.00000000  1       1.00000000  PERLEN NSTP TSMULT
       1.00000000  1       1.00000000  PERLEN NSTP TSMULT
       1.00000000  1       1.00000000  PERLEN NSTP TSMULT
       1.00000000  1       1.00000000  PERLEN NSTP TSMULT
       1.00000000  1       1.00000000  PERLEN NSTP TSMULT
       1.00000000  1       1.00000000  PERLEN NSTP TSMULT
       1.00000000  1       1.00000000  PERLEN NSTP TSMULT
       1.00000000  1       1.00000000  PERLEN NSTP TSMULT
       1.00000000  1       1.00000000  PERLEN NSTP TSMULT
       1.00000000  1       1.00000000  PERLEN NSTP TSMULT
       1.00000000  1       1.00000000  PERLEN NSTP TSMULT
       1.00000000  1       1.00000000  PERLEN NSTP TSMULT
       1.00000000  1       1.00000000  PERLEN NSTP TSMULT
       1.00000000  1       1.00000000  PERLEN NSTP TSMULT
       1.00000000  1       1.00000000  PERLEN NSTP TSMULT
       1.00000000  1       1.00000000  PERLEN NSTP TSMULT
       1.00000000  1       1.00000000  PERLEN NSTP TSMULT
       1.00000000  1       1.00000000  PERLEN NSTP TSMULT
       1.00000000  1       1.00000000  PERLEN NSTP TSMULT
       1.00000000  1       1.00000000  PERLEN NSTP TSMULT
       1.00000000  1       1.00000000  PERLEN NSTP TSMULT
       1.00000000  1       1.00000000  PERLEN NSTP TSMULT
       1.00000000  1       1.00000000  PERLEN NSTP TSMULT
       1.00000000  1       1.00000000  PERLEN NSTP TSMULT
       1.00000000  1       1.00000000  PERLEN NSTP TSMULT
       1.00000000  1       1.00000000  PERLEN NSTP TSMULT
       1.00000000  1       1.00000000  PERLEN NSTP TSMULT
       1.00000000  1       1.00000000  PERLEN NSTP TSMULT
       1.00000000  1       1.00000000  PERLEN NSTP TSMULT
       1.00000000  1       1.00000000  PERLEN NSTP TSMULT
       1.00000000  1       1.00000000  PERLEN NSTP TSMULT
       1.00000000  1       1.00000000  PERLEN NSTP TSMULT
       1.00000000  1       1.00000000  PERLEN NSTP TSMULT
       1.00000000  1       1.00000000  PERLEN NSTP TSMULT
       1.00000000  1       1.00000000  PERLEN NSTP TSMULT
       1.00000000  1       1.00000000  PERLEN NSTP TSMULT
       1.00000000  1       1.00000000  PERLEN NSTP TSMULT
       1.00000000  1       1.00000000  PERLEN NSTP TSMULT
       1.00000000  1       1.00000000  PERLEN NSTP TSMULT
       1.00000000  1       1.00000000  PERLEN NSTP TSMULT
       1.00000000  1       1.00000000  PERLEN NSTP TSMULT
       1.00000000  1       1.00000000  PERLEN NSTP TSMULT
       1.00000000  1       1.00000000  PERLEN NSTP TSMULT
       1.00000000  1       1.00000000  PERLEN NSTP TSMULT
       1.00000000  1       1.00000000  PERLEN NSTP TSMULT
       1.00000000  1       1.00000000  PERLEN NSTP TSMULT
       1.00000000  1       1.00000000  PERLEN NSTP TSMULT
       1.00000000  1       1.00000000  PERLEN NSTP TSMULT
       1.00000000  1       1.00000000  PERLEN NSTP TSMULT
       1.00000000  1       1.00000000  PERLEN NSTP TSMULT
       1.00000000  1       1.00000000  PERLEN NSTP TSMULT
       1.00000000  1       1.00000000  PERLEN NSTP TSMULT
       1.00000000  1       1.00000000  PERLEN NSTP TSMULT
       1.00000000  1       1.00000000  PERLEN NSTP TSMULT
       1.00000000  1       1.00000000  PERLEN NSTP TSMULT
       1.00000000  1       1.00000000  PERLEN NSTP TSMULT