pcf
* control data
             restart      regularization
        48      1013         6       422        26         0
         6         5              single               point         1         0         0          noobsreref
   2.000000E+01  -3.000000E+00   3.000000E-01   1.000000E-02        -7       999          lamforgive        noderforgive
   1.000000E+01   1.000000E+01   1.000000E-03         0         0
   1.000000E-01         1   1.100000E+00               noaui          nosenreuse        noboundscale
         6  1.000000E-02         3         3   1.000000E-02         3   0.000000E+00         1  -1.000000E+00
         0         0         0         0             jcosave          verboserec          jcosaveitn          reisaveitn          parsaveitn        noparsaverun
* singular value decomposition
         1
         48    1.000000E-06
1
* parameter groups
hk                      relative              1.0000000000E-02       0.0  switch                2.0000000000E+00       parabolic             1.0000000000E-05      5.0000000000E-01       smaller              
w0                      relative              1.0000000000E-02       0.0  switch                2.0000000000E+00       parabolic             1.0000000000E-05      5.0000000000E-01       smaller              
w1                      relative              1.0000000000E-02       0.0  switch                2.0000000000E+00       parabolic             1.0000000000E-05      5.0000000000E-01       smaller              
rch                     relative              1.0000000000E-02       0.0  switch                2.0000000000E+00       parabolic             1.0000000000E-05      5.0000000000E-01       smaller              
porosity                relative              1.0000000000E-02       0.0  switch                2.0000000000E+00       parabolic             1.0000000000E-05      5.0000000000E-01       smaller              
sfr                     relative              1.0000000000E-02       0.0  switch                2.0000000000E+00       parabolic             1.0000000000E-05      5.0000000000E-01       smaller
* parameter data
hk00                   log                    factor                5.0000000000E+00      5.0000000000E-01      5.0000000000E+01       hk                    1.0000000000E+00      0.0000000000E+00      1          
hk01                   log                    factor                5.0000000000E+00      5.0000000000E-01      5.0000000000E+01       hk                    1.0000000000E+00      0.0000000000E+00      1          
hk02                   log                    factor                5.0000000000E+00      5.0000000000E-01      5.0000000000E+01       hk                    1.0000000000E+00      0.0000000000E+00      1          
hk03                   log                    factor                5.0000000000E+00      5.0000000000E-01      5.0000000000E+01       hk                    1.0000000000E+00      0.0000000000E+00      1          
hk04                   log                    factor                5.0000000000E+00      5.0000000000E-01      5.0000000000E+01       hk                    1.0000000000E+00      0.0000000000E+00      1          
hk05                   log                    factor                5.0000000000E+00      5.0000000000E-01      5.0000000000E+01       hk                    1.0000000000E+00      0.0000000000E+00      1          
hk06                   log                    factor                5.0000000000E+00      5.0000000000E-01      5.0000000000E+01       hk                    1.0000000000E+00      0.0000000000E+00      1          
hk07                   log                    factor                5.0000000000E+00      5.0000000000E-01      5.0000000000E+01       hk                    1.0000000000E+00      0.0000000000E+00      1          
hk08                   log                    factor                5.0000000000E+00      5.0000000000E-01      5.0000000000E+01       hk                    1.0000000000E+00      0.0000000000E+00      1          
hk09                   log                    factor                5.0000000000E+00      5.0000000000E-01      5.0000000000E+01       hk                    1.0000000000E+00      0.0000000000E+00      1          
hk10                   log                    factor                5.0000000000E+00      5.0000000000E-01      5.0000000000E+01       hk                    1.0000000000E+00      0.0000000000E+00      1          
hk11                   log                    factor                5.0000000000E+00      5.0000000000E-01      5.0000000000E+01       hk                    1.0000000000E+00      0.0000000000E+00      1          
hk12                   log                    factor                5.0000000000E+00      5.0000000000E-01      5.0000000000E+01       hk                    1.0000000000E+00      0.0000000000E+00      1          
hk13                   log                    factor                5.0000000000E+00      5.0000000000E-01      5.0000000000E+01       hk                    1.0000000000E+00      0.0000000000E+00      1          
hk14                   log                    factor                5.0000000000E+00      5.0000000000E-01      5.0000000000E+01       hk                    1.0000000000E+00      0.0000000000E+00      1          
hk15                   log                    factor                5.0000000000E+00      5.0000000000E-01      5.0000000000E+01       hk                    1.0000000000E+00      0.0000000000E+00      1          
hk16                   log                    factor                5.0000000000E+00      5.0000000000E-01      5.0000000000E+01       hk                    1.0000000000E+00      0.0000000000E+00      1          
hk17                   log                    factor                5.0000000000E+00      5.0000000000E-01      5.0000000000E+01       hk                    1.0000000000E+00      0.0000000000E+00      1          
hk18                   log                    factor                5.0000000000E+00      5.0000000000E-01      5.0000000000E+01       hk                    1.0000000000E+00      0.0000000000E+00      1          
hk19                   log                    factor                5.0000000000E+00      5.0000000000E-01      5.0000000000E+01       hk                    1.0000000000E+00      0.0000000000E+00      1          
hk20                   log                    factor                5.0000000000E+00      5.0000000000E-01      5.0000000000E+01       hk                    1.0000000000E+00      0.0000000000E+00      1          
hk21                   log                    factor                5.0000000000E+00      5.0000000000E-01      5.0000000000E+01       hk                    1.0000000000E+00      0.0000000000E+00      1          
hk22                   log                    factor                5.0000000000E+00      5.0000000000E-01      5.0000000000E+01       hk                    1.0000000000E+00      0.0000000000E+00      1          
hk23                   log                    factor                5.0000000000E+00      5.0000000000E-01      5.0000000000E+01       hk                    1.0000000000E+00      0.0000000000E+00      1          
hk24                   log                    factor                5.0000000000E+00      5.0000000000E-01      5.0000000000E+01       hk                    1.0000000000E+00      0.0000000000E+00      1          
hk25                   log                    factor                5.0000000000E+00      5.0000000000E-01      5.0000000000E+01       hk                    1.0000000000E+00      0.0000000000E+00      1          
hk26                   log                    factor                5.0000000000E+00      5.0000000000E-01      5.0000000000E+01       hk                    1.0000000000E+00      0.0000000000E+00      1          
hk27                   log                    factor                5.0000000000E+00      5.0000000000E-01      5.0000000000E+01       hk                    1.0000000000E+00      0.0000000000E+00      1          
hk28                   log                    factor                5.0000000000E+00      5.0000000000E-01      5.0000000000E+01       hk                    1.0000000000E+00      0.0000000000E+00      1          
hk29                   log                    factor                5.0000000000E+00      5.0000000000E-01      5.0000000000E+01       hk                    1.0000000000E+00      0.0000000000E+00      1          
hk30                   log                    factor                5.0000000000E+00      5.0000000000E-01      5.0000000000E+01       hk                    1.0000000000E+00      0.0000000000E+00      1          
hk31                   log                    factor                5.0000000000E+00      5.0000000000E-01      5.0000000000E+01       hk                    1.0000000000E+00      0.0000000000E+00      1          
porosity               log                    factor                1.0000000000E-02      5.0000000000E-03      2.0000000000E-02       porosity              1.0000000000E+00      0.0000000000E+00      1          
rch_0                  log                    factor                1.0000000000E+00      5.0000000000E-01      2.0000000000E+00       rch                   1.0000000000E+00      0.0000000000E+00      1          
rch_1                  log                    factor                1.0000000000E+00      2.5000000000E-01      3.0000000000E+00       rch                   1.0000000000E+00      0.0000000000E+00      1          
sfr                    log                    factor                1.0000000000E-01      1.0000000000E-02      1.0000000000E+01       sfr                   1.0000000000E+00      0.0000000000E+00      1          
w0_r09_c16             log                    factor                1.0000000000E+00      5.0000000000E-01      2.0000000000E+00       w0                    1.0000000000E+00      0.0000000000E+00      1          
w0_r11_c13             log                    factor                1.0000000000E+00      5.0000000000E-01      2.0000000000E+00       w0                    1.0000000000E+00      0.0000000000E+00      1          
w0_r20_c14             log                    factor                1.0000000000E+00      5.0000000000E-01      2.0000000000E+00       w0                    1.0000000000E+00      0.0000000000E+00      1          
w0_r26_c10             log                    factor                1.0000000000E+00      5.0000000000E-01      2.0000000000E+00       w0                    1.0000000000E+00      0.0000000000E+00      1          
w0_r29_c06             log                    factor                1.0000000000E+00      5.0000000000E-01      2.0000000000E+00       w0                    1.0000000000E+00      0.0000000000E+00      1          
w0_r34_c12             log                    factor                1.0000000000E+00      5.0000000000E-01      2.0000000000E+00       w0                    1.0000000000E+00      0.0000000000E+00      1          
w1_r09_c16             log                    factor                1.0000000000E+00      1.0000000000E-01      1.0000000000E+01       w1                    1.0000000000E+00      0.0000000000E+00      1          
w1_r11_c13             log                    factor                1.0000000000E+00      1.0000000000E-01      1.0000000000E+01       w1                    1.0000000000E+00      0.0000000000E+00      1          
w1_r20_c14             log                    factor                1.0000000000E+00      1.0000000000E-01      1.0000000000E+01       w1                    1.0000000000E+00      0.0000000000E+00      1          
w1_r26_c10             log                    factor                1.0000000000E+00      1.0000000000E-01      1.0000000000E+01       w1                    1.0000000000E+00      0.0000000000E+00      1          
w1_r29_c06             log                    factor                1.0000000000E+00      1.0000000000E-01      1.0000000000E+01       w1                    1.0000000000E+00      0.0000000000E+00      1          
w1_r34_c12             log                    factor                1.0000000000E+00      1.0000000000E-01      1.0000000000E+01       w1                    1.0000000000E+00      0.0000000000E+00      1
* observation groups
vol_storage          
flx_percent          
flx_stream_          
vol_recharg          
vol_in-out           
flx_recharg          
flaqx                
vol_total            
vol_percent          
pothead              
flx_in-out           
flx_constan          
vol_stream_          
calflux              
flx_total            
forecast             
flx_storage          
flout                
vol_wells            
calhead              
flx_wells            
vol_constan          
regulrch             
regulw0              
regul_cc             
regulw1              
* observation data
c001cr03c10_19700102  2.6661526351E+01      5.0000000000E+00       calhead              
c001cr03c16_19700102  2.3460564090E+01      5.0000000000E+00       calhead              
c001cr04c09_19700102  2.8513522313E+01      5.0000000000E+00       calhead              
c001cr10c02_19700102  3.0741689435E+01      5.0000000000E+00       calhead              
c001cr14c11_19700102  2.5871207653E+01      5.0000000000E+00       calhead              
c001cr16c17_19700102  1.9817239997E+01      5.0000000000E+00       calhead              
c001cr22c11_19700102  2.4858560529E+01      5.0000000000E+00       calhead              
c001cr23c16_19700102  1.9509002893E+01      5.0000000000E+00       calhead              
c001cr25c05_19700102  2.5251713484E+01      5.0000000000E+00       calhead              
c001cr27c07_19700102  2.5655898840E+01      5.0000000000E+00       calhead              
c001cr30c16_19700102  1.5748679333E+01      5.0000000000E+00       calhead              
c001cr34c08_19700102  2.1180745892E+01      5.0000000000E+00       calhead              
c001cr35c11_19700102  1.8381921197E+01      5.0000000000E+00       calhead              
c001fr05c04_19791231  2.9453472000E+01      0.0000000000E+00       forecast             
c001fr16c17_19791231  2.1617983000E+01      0.0000000000E+00       forecast             
c001pr01c01_19700102  3.0512041000E+01      0.0000000000E+00       pothead              
c001pr01c02_19700102  3.0439938000E+01      0.0000000000E+00       pothead              
c001pr01c03_19700102  3.0279339000E+01      0.0000000000E+00       pothead              
c001pr01c04_19700102  3.0009550000E+01      0.0000000000E+00       pothead              
c001pr01c05_19700102  2.9700403000E+01      0.0000000000E+00       pothead              
c001pr01c06_19700102  2.9360172000E+01      0.0000000000E+00       pothead              
c001pr01c07_19700102  2.8920494000E+01      0.0000000000E+00       pothead              
c001pr01c08_19700102  2.8552475000E+01      0.0000000000E+00       pothead              
c001pr01c09_19700102  2.8126886000E+01      0.0000000000E+00       pothead              
c001pr01c10_19700102  2.7676262000E+01      0.0000000000E+00       pothead              
c001pr01c11_19700102  2.7199520000E+01      0.0000000000E+00       pothead              
c001pr01c12_19700102  2.6730268000E+01      0.0000000000E+00       pothead              
c001pr01c13_19700102  2.6264507000E+01      0.0000000000E+00       pothead              
c001pr01c14_19700102  2.5807264000E+01      0.0000000000E+00       pothead              
c001pr01c15_19700102  2.5420826000E+01      0.0000000000E+00       pothead              
c001pr01c16_19700102  2.5059366000E+01      0.0000000000E+00       pothead              
c001pr01c17_19700102  2.5014868000E+01      0.0000000000E+00       pothead              
c001pr01c18_19700102  2.4989712000E+01      0.0000000000E+00       pothead              
c001pr01c19_19700102  2.4982012000E+01      0.0000000000E+00       pothead              
c001pr01c20_19700102  2.4984385000E+01      0.0000000000E+00       pothead              
c001pr02c01_19700102  3.0535582000E+01      0.0000000000E+00       pothead              
c001pr02c02_19700102  3.0457975000E+01      0.0000000000E+00       pothead              
c001pr02c03_19700102  3.0292458000E+01      0.0000000000E+00       pothead              
c001pr02c04_19700102  3.0005709000E+01      0.0000000000E+00       pothead              
c001pr02c05_19700102  2.9718561000E+01      0.0000000000E+00       pothead              
c001pr02c06_19700102  2.9366959000E+01      0.0000000000E+00       pothead              
c001pr02c07_19700102  2.8927778000E+01      0.0000000000E+00       pothead              
c001pr02c08_19700102  2.8531343000E+01      0.0000000000E+00       pothead              
c001pr02c09_19700102  2.8113857000E+01      0.0000000000E+00       pothead              
c001pr02c10_19700102  2.7619690000E+01      0.0000000000E+00       pothead              
c001pr02c11_19700102  2.7131405000E+01      0.0000000000E+00       pothead              
c001pr02c12_19700102  2.6669115000E+01      0.0000000000E+00       pothead              
c001pr02c13_19700102  2.6204805000E+01      0.0000000000E+00       pothead              
c001pr02c14_19700102  2.5730932000E+01      0.0000000000E+00       pothead              
c001pr02c15_19700102  2.5340332000E+01      0.0000000000E+00       pothead              
c001pr02c16_19700102  2.4932224000E+01      0.0000000000E+00       pothead              
c001pr02c17_19700102  2.4935112000E+01      0.0000000000E+00       pothead              
c001pr02c18_19700102  2.4930775000E+01      0.0000000000E+00       pothead              
c001pr02c19_19700102  2.4931133000E+01      0.0000000000E+00       pothead              
c001pr02c20_19700102  2.4935452000E+01      0.0000000000E+00       pothead              
c001pr03c01_19700102  3.0572933000E+01      0.0000000000E+00       pothead              
c001pr03c02_19700102  3.0496498000E+01      0.0000000000E+00       pothead              
c001pr03c03_19700102  3.0318350000E+01      0.0000000000E+00       pothead              
c001pr03c04_19700102  3.0022253000E+01      0.0000000000E+00       pothead              
c001pr03c05_19700102  2.9741129000E+01      0.0000000000E+00       pothead              
c001pr03c06_19700102  2.9379618000E+01      0.0000000000E+00       pothead              
c001pr03c07_19700102  2.8912909000E+01      0.0000000000E+00       pothead              
c001pr03c08_19700102  2.8516104000E+01      0.0000000000E+00       pothead              
c001pr03c09_19700102  2.8050028000E+01      0.0000000000E+00       pothead              
c001pr03c10_19700102  2.7547860000E+01      0.0000000000E+00       pothead              
c001pr03c11_19700102  2.7016647000E+01      0.0000000000E+00       pothead              
c001pr03c12_19700102  2.6546883000E+01      0.0000000000E+00       pothead              
c001pr03c13_19700102  2.6059150000E+01      0.0000000000E+00       pothead              
c001pr03c14_19700102  2.5609297000E+01      0.0000000000E+00       pothead              
c001pr03c15_19700102  2.5217867000E+01      0.0000000000E+00       pothead              
c001pr03c16_19700102  2.4759901000E+01      0.0000000000E+00       pothead              
c001pr03c17_19700102  2.4791843000E+01      0.0000000000E+00       pothead              
c001pr03c18_19700102  2.4811518000E+01      0.0000000000E+00       pothead              
c001pr03c19_19700102  2.4827742000E+01      0.0000000000E+00       pothead              
c001pr03c20_19700102  2.4837488000E+01      0.0000000000E+00       pothead              
c001pr04c01_19700102  3.0650827000E+01      0.0000000000E+00       pothead              
c001pr04c02_19700102  3.0559769000E+01      0.0000000000E+00       pothead              
c001pr04c03_19700102  3.0366339000E+01      0.0000000000E+00       pothead              
c001pr04c04_19700102  3.0070295000E+01      0.0000000000E+00       pothead              
c001pr04c05_19700102  2.9766510000E+01      0.0000000000E+00       pothead              
c001pr04c06_19700102  2.9403278000E+01      0.0000000000E+00       pothead              
c001pr04c07_19700102  2.8904383000E+01      0.0000000000E+00       pothead              
c001pr04c08_19700102  2.8449236000E+01      0.0000000000E+00       pothead              
c001pr04c09_19700102  2.7976944000E+01      0.0000000000E+00       pothead              
c001pr04c10_19700102  2.7367560000E+01      0.0000000000E+00       pothead              
c001pr04c11_19700102  2.6820845000E+01      0.0000000000E+00       pothead              
c001pr04c12_19700102  2.6349200000E+01      0.0000000000E+00       pothead              
c001pr04c13_19700102  2.5882984000E+01      0.0000000000E+00       pothead              
c001pr04c14_19700102  2.5446241000E+01      0.0000000000E+00       pothead              
c001pr04c15_19700102  2.5018368000E+01      0.0000000000E+00       pothead              
c001pr04c16_19700102  2.4532850000E+01      0.0000000000E+00       pothead              
c001pr04c17_19700102  2.4615484000E+01      0.0000000000E+00       pothead              
c001pr04c18_19700102  2.4653608000E+01      0.0000000000E+00       pothead              
c001pr04c19_19700102  2.4680779000E+01      0.0000000000E+00       pothead              
c001pr04c20_19700102  2.4693913000E+01      0.0000000000E+00       pothead              
c001pr05c01_19700102  3.0757520000E+01      0.0000000000E+00       pothead              
c001pr05c02_19700102  3.0647590000E+01      0.0000000000E+00       pothead              
c001pr05c03_19700102  3.0437744000E+01      0.0000000000E+00       pothead              
c001pr05c05_19700102  2.9819288000E+01      0.0000000000E+00       pothead              
c001pr05c06_19700102  2.9410051000E+01      0.0000000000E+00       pothead              
c001pr05c07_19700102  2.8895395000E+01      0.0000000000E+00       pothead              
c001pr05c08_19700102  2.8413172000E+01      0.0000000000E+00       pothead              
c001pr05c09_19700102  2.7777473000E+01      0.0000000000E+00       pothead              
c001pr05c10_19700102  2.7157875000E+01      0.0000000000E+00       pothead              
c001pr05c11_19700102  2.6623795000E+01      0.0000000000E+00       pothead              
c001pr05c12_19700102  2.6155000000E+01      0.0000000000E+00       pothead              
c001pr05c13_19700102  2.5677149000E+01      0.0000000000E+00       pothead              
c001pr05c14_19700102  2.5230007000E+01      0.0000000000E+00       pothead              
c001pr05c15_19700102  2.4803713000E+01      0.0000000000E+00       pothead              
c001pr05c16_19700102  2.4299720000E+01      0.0000000000E+00       pothead              
c001pr05c17_19700102  2.4370844000E+01      0.0000000000E+00       pothead              
c001pr05c18_19700102  2.4452023000E+01      0.0000000000E+00       pothead              
c001pr05c19_19700102  2.4489773000E+01      0.0000000000E+00       pothead              
c001pr05c20_19700102  2.4512917000E+01      0.0000000000E+00       pothead              
c001pr06c01_19700102  3.0861282000E+01      0.0000000000E+00       pothead              
c001pr06c02_19700102  3.0776663000E+01      0.0000000000E+00       pothead              
c001pr06c03_19700102  3.0558054000E+01      0.0000000000E+00       pothead              
c001pr06c04_19700102  3.0257057000E+01      0.0000000000E+00       pothead              
c001pr06c05_19700102  2.9882103000E+01      0.0000000000E+00       pothead              
c001pr06c06_19700102  2.9419298000E+01      0.0000000000E+00       pothead              
c001pr06c07_19700102  2.8876232000E+01      0.0000000000E+00       pothead              
c001pr06c08_19700102  2.8234163000E+01      0.0000000000E+00       pothead              
c001pr06c09_19700102  2.7640104000E+01      0.0000000000E+00       pothead              
c001pr06c10_19700102  2.6955723000E+01      0.0000000000E+00       pothead              
c001pr06c11_19700102  2.6360350000E+01      0.0000000000E+00       pothead              
c001pr06c12_19700102  2.5891918000E+01      0.0000000000E+00       pothead              
c001pr06c13_19700102  2.5416706000E+01      0.0000000000E+00       pothead              
c001pr06c14_19700102  2.4983854000E+01      0.0000000000E+00       pothead              
c001pr06c15_19700102  2.4546032000E+01      0.0000000000E+00       pothead              
c001pr06c16_19700102  2.4034964000E+01      0.0000000000E+00       pothead              
c001pr06c17_19700102  2.4121998000E+01      0.0000000000E+00       pothead              
c001pr06c18_19700102  2.4207209000E+01      0.0000000000E+00       pothead              
c001pr06c19_19700102  2.4283457000E+01      0.0000000000E+00       pothead              
c001pr06c20_19700102  2.4307625000E+01      0.0000000000E+00       pothead              
c001pr07c01_19700102  3.0972980000E+01      0.0000000000E+00       pothead              
c001pr07c02_19700102  3.0889275000E+01      0.0000000000E+00       pothead              
c001pr07c03_19700102  3.0710903000E+01      0.0000000000E+00       pothead              
c001pr07c04_19700102  3.0390440000E+01      0.0000000000E+00       pothead              
c001pr07c05_19700102  2.9973042000E+01      0.0000000000E+00       pothead              
c001pr07c06_19700102  2.9401218000E+01      0.0000000000E+00       pothead              
c001pr07c07_19700102  2.8829031000E+01      0.0000000000E+00       pothead              
c001pr07c08_19700102  2.8043037000E+01      0.0000000000E+00       pothead              
c001pr07c09_19700102  2.7349833000E+01      0.0000000000E+00       pothead              
c001pr07c10_19700102  2.6629232000E+01      0.0000000000E+00       pothead              
c001pr07c11_19700102  2.6058903000E+01      0.0000000000E+00       pothead              
c001pr07c12_19700102  2.5562435000E+01      0.0000000000E+00       pothead              
c001pr07c13_19700102  2.5097805000E+01      0.0000000000E+00       pothead              
c001pr07c14_19700102  2.4662298000E+01      0.0000000000E+00       pothead              
c001pr07c15_19700102  2.4184267000E+01      0.0000000000E+00       pothead              
c001pr07c16_19700102  2.3712896000E+01      0.0000000000E+00       pothead              
c001pr07c17_19700102  2.3836044000E+01      0.0000000000E+00       pothead              
c001pr07c18_19700102  2.3951370000E+01      0.0000000000E+00       pothead              
c001pr07c19_19700102  2.4033157000E+01      0.0000000000E+00       pothead              
c001pr07c20_19700102  2.4072520000E+01      0.0000000000E+00       pothead              
c001pr08c01_19700102  3.1141436000E+01      0.0000000000E+00       pothead              
c001pr08c02_19700102  3.1047062000E+01      0.0000000000E+00       pothead              
c001pr08c03_19700102  3.0880302000E+01      0.0000000000E+00       pothead              
c001pr08c04_19700102  3.0592710000E+01      0.0000000000E+00       pothead              
c001pr08c05_19700102  3.0058084000E+01      0.0000000000E+00       pothead              
c001pr08c06_19700102  2.9421091000E+01      0.0000000000E+00       pothead              
c001pr08c07_19700102  2.8743647000E+01      0.0000000000E+00       pothead              
c001pr08c08_19700102  2.7755068000E+01      0.0000000000E+00       pothead              
c001pr08c09_19700102  2.6914968000E+01      0.0000000000E+00       pothead              
c001pr08c10_19700102  2.6224670000E+01      0.0000000000E+00       pothead              
c001pr08c11_19700102  2.5670584000E+01      0.0000000000E+00       pothead              
c001pr08c12_19700102  2.5167858000E+01      0.0000000000E+00       pothead              
c001pr08c13_19700102  2.4720520000E+01      0.0000000000E+00       pothead              
c001pr08c14_19700102  2.4245422000E+01      0.0000000000E+00       pothead              
c001pr08c15_19700102  2.3737017000E+01      0.0000000000E+00       pothead              
c001pr08c16_19700102  2.3260475000E+01      0.0000000000E+00       pothead              
c001pr08c17_19700102  2.3448227000E+01      0.0000000000E+00       pothead              
c001pr08c18_19700102  2.3653147000E+01      0.0000000000E+00       pothead              
c001pr08c19_19700102  2.3771235000E+01      0.0000000000E+00       pothead              
c001pr08c20_19700102  2.3836708000E+01      0.0000000000E+00       pothead              
c001pr09c01_19700102  3.1294851000E+01      0.0000000000E+00       pothead              
c001pr09c02_19700102  3.1230667000E+01      0.0000000000E+00       pothead              
c001pr09c03_19700102  3.1121336000E+01      0.0000000000E+00       pothead              
c001pr09c04_19700102  3.1029104000E+01      0.0000000000E+00       pothead              
c001pr09c08_19700102  2.6941826000E+01      0.0000000000E+00       pothead              
c001pr09c09_19700102  2.6207659000E+01      0.0000000000E+00       pothead              
c001pr09c10_19700102  2.5734928000E+01      0.0000000000E+00       pothead              
c001pr09c11_19700102  2.5257160000E+01      0.0000000000E+00       pothead              
c001pr09c12_19700102  2.4751045000E+01      0.0000000000E+00       pothead              
c001pr09c13_19700102  2.4279680000E+01      0.0000000000E+00       pothead              
c001pr09c14_19700102  2.3825167000E+01      0.0000000000E+00       pothead              
c001pr09c15_19700102  2.3246279000E+01      0.0000000000E+00       pothead              
c001pr09c16_19700102  2.2214476000E+01      0.0000000000E+00       pothead              
c001pr09c17_19700102  2.3008759000E+01      0.0000000000E+00       pothead              
c001pr09c18_19700102  2.3345530000E+01      0.0000000000E+00       pothead              
c001pr09c19_19700102  2.3524271000E+01      0.0000000000E+00       pothead              
c001pr09c20_19700102  2.3596155000E+01      0.0000000000E+00       pothead              