pcf
* control data
             restart          estimation
         5       725         2         0         2
         4         2              single               point
   2.000000E+01  -3.000000E+00   3.000000E-01   1.000000E-02        -7
   1.000000E+01   1.000000E+01   1.000000E-03
   1.000000E-01
         0   1.000000E-02         3         3   1.000000E-02         3
         0         0         0
* singular value decomposition
         1
  10000000    1.000000E-06
1
* parameter groups
hk                     relative              1.0000000000E-02      0.0 switch                2.0000000000E+00      parabolic             1.0000000000E-05      5.0000000000E-01      smaller              
rch                    relative              1.0000000000E-02      0.0 switch                2.0000000000E+00      parabolic             1.0000000000E-05      5.0000000000E-01      smaller              
* parameter data
hk1                   log                   factor                5.0000000000E+00      5.0000000000E-02      5.0000000000E+01      hk                    1.0000000000E+00      0.0000000000E+00      
hk2                   log                   factor                5.0000000000E+00      5.0000000000E-02      5.0000000000E+01      hk                    1.0000000000E+00      0.0000000000E+00      
hk3                   log                   factor                5.0000000000E+00      5.0000000000E-02      5.0000000000E+01      hk                    1.0000000000E+00      0.0000000000E+00      
rch0                  fixed                 factor                1.0000000000E+00      5.0000000000E-01      2.0000000000E+00      rch                   1.0000000000E+00      0.0000000000E+00      
rch1                  fixed                 factor                1.0000000000E+00      5.0000000000E-01      2.0000000000E+00      rch                   1.0000000000E+00      0.0000000000E+00      
* observation groups
flux                 
hds                  
* observation data
gage_1:1.0            1.2233000000E+03      0.0000000000E+00      flux                 
gage_1:122.0          1.2914000000E+03      0.0000000000E+00      flux                 
gage_1:153.0          1.2101000000E+03      0.0000000000E+00      flux                 
gage_1:183.0          9.1431000000E+02      0.0000000000E+00      flux                 
gage_1:214.0          7.7241000000E+02      0.0000000000E+00      flux                 
gage_1:245.0          6.2150000000E+02      0.0000000000E+00      flux                 
gage_1:275.0          5.7230000000E+02      0.0000000000E+00      flux                 
gage_1:306.0          6.9409000000E+02      0.0000000000E+00      flux                 
gage_1:32.0           1.1546000000E+03      0.0000000000E+00      flux                 
gage_1:336.0          7.6099000000E+02      0.0000000000E+00      flux                 
gage_1:367.0          1.1739000000E+03      0.0000000000E+00      flux                 
gage_1:398.0          1.0484000000E+03      0.0000000000E+00      flux                 
gage_1:426.0          1.4690000000E+03      0.0000000000E+00      flux                 
gage_1:457.0          1.3644000000E+03      0.0000000000E+00      flux                 
gage_1:487.0          1.1674000000E+03      0.0000000000E+00      flux                 
gage_1:518.0          9.8763000000E+02      0.0000000000E+00      flux                 
gage_1:548.0          7.9738000000E+02      0.0000000000E+00      flux                 
gage_1:579.0          6.4277000000E+02      0.0000000000E+00      flux                 
gage_1:61.0           1.5584000000E+03      0.0000000000E+00      flux                 
gage_1:610.0          5.2884000000E+02      0.0000000000E+00      flux                 
gage_1:640.0          4.1767000000E+02      0.0000000000E+00      flux                 
gage_1:671.0          4.4932000000E+02      0.0000000000E+00      flux                 
gage_1:701.0          5.5876000000E+02      0.0000000000E+00      flux                 
gage_1:732.0          6.0576000000E+02      0.0000000000E+00      flux                 
gage_1:92.0           1.5683000000E+03      0.0000000000E+00      flux                 
headwater:1.0         -8.9177000000E+02     0.0000000000E+00      flux                 
headwater:122.0       -8.9090000000E+02     0.0000000000E+00      flux                 
headwater:153.0       -8.6628000000E+02     0.0000000000E+00      flux                 
headwater:183.0       -6.9840000000E+02     0.0000000000E+00      flux                 
headwater:214.0       -6.3271000000E+02     0.0000000000E+00      flux                 
headwater:245.0       -5.4966000000E+02     0.0000000000E+00      flux                 
headwater:275.0       -5.0276000000E+02     0.0000000000E+00      flux                 
headwater:306.0       -5.6819000000E+02     0.0000000000E+00      flux                 
headwater:32.0        -8.4537000000E+02     0.0000000000E+00      flux                 
headwater:336.0       -5.9783000000E+02     0.0000000000E+00      flux                 
headwater:367.0       -8.2975000000E+02     0.0000000000E+00      flux                 
headwater:398.0       -7.6573000000E+02     0.0000000000E+00      flux                 
headwater:426.0       -1.0399000000E+03     0.0000000000E+00      flux                 
headwater:457.0       -9.2561000000E+02     0.0000000000E+00      flux                 
headwater:487.0       -8.1662000000E+02     0.0000000000E+00      flux                 
headwater:518.0       -7.0083000000E+02     0.0000000000E+00      flux                 
headwater:548.0       -5.9231000000E+02     0.0000000000E+00      flux                 
headwater:579.0       -5.2094000000E+02     0.0000000000E+00      flux                 
headwater:61.0        -1.1115000000E+03     0.0000000000E+00      flux                 
headwater:610.0       -4.6020000000E+02     0.0000000000E+00      flux                 
headwater:640.0       -3.7958000000E+02     0.0000000000E+00      flux                 
headwater:671.0       -3.8176000000E+02     0.0000000000E+00      flux                 
headwater:701.0       -3.9499000000E+02     0.0000000000E+00      flux                 
headwater:732.0       -4.3489000000E+02     0.0000000000E+00      flux                 
headwater:92.0        -1.1079000000E+03     0.0000000000E+00      flux                 
tailwater:1.0         -2.0943000000E+02     0.0000000000E+00      flux                 
tailwater:122.0       -2.3860000000E+02     0.0000000000E+00      flux                 
tailwater:153.0       -2.2473000000E+02     0.0000000000E+00      flux                 
tailwater:183.0       -1.1942000000E+02     0.0000000000E+00      flux                 
tailwater:214.0       -7.3313000000E+01     0.0000000000E+00      flux                 
tailwater:245.0       -8.1769000000E+00     0.0000000000E+00      flux                 
tailwater:275.0       1.2343000000E+01      0.0000000000E+00      flux                 
tailwater:306.0       -3.0866000000E+01     0.0000000000E+00      flux                 
tailwater:32.0        -1.5950000000E+02     0.0000000000E+00      flux                 
tailwater:336.0       -2.4702000000E+01     0.0000000000E+00      flux                 
tailwater:367.0       -1.6122000000E+02     0.0000000000E+00      flux                 
tailwater:398.0       -1.2825000000E+02     0.0000000000E+00      flux                 
tailwater:426.0       -2.7546000000E+02     0.0000000000E+00      flux                 
tailwater:457.0       -2.8832000000E+02     0.0000000000E+00      flux                 
tailwater:487.0       -2.3522000000E+02     0.0000000000E+00      flux                 
tailwater:518.0       -1.8971000000E+02     0.0000000000E+00      flux                 
tailwater:548.0       -1.1450000000E+02     0.0000000000E+00      flux                 
tailwater:579.0       -4.9071000000E+01     0.0000000000E+00      flux                 
tailwater:61.0        -2.6715000000E+02     0.0000000000E+00      flux                 
tailwater:610.0       5.1034000000E+00      0.0000000000E+00      flux                 
tailwater:640.0       5.5569000000E+01      0.0000000000E+00      flux                 
tailwater:671.0       6.5565000000E+01      0.0000000000E+00      flux                 
tailwater:701.0       3.6328000000E+01      0.0000000000E+00      flux                 
tailwater:732.0       5.1437000000E+01      0.0000000000E+00      flux                 
tailwater:92.0        -3.0346000000E+02     0.0000000000E+00      flux                 
trgw_0_13_10:1.0      3.4406181390E+01      0.0000000000E+00      hds                  
trgw_0_13_10:122.0    3.4450633380E+01      0.0000000000E+00      hds                  
trgw_0_13_10:153.0    3.4441733340E+01      0.0000000000E+00      hds                  
trgw_0_13_10:183.0    3.4375639430E+01      0.0000000000E+00      hds                  
trgw_0_13_10:214.0    3.4323118620E+01      0.0000000000E+00      hds                  
trgw_0_13_10:245.0    3.4271163080E+01      0.0000000000E+00      hds                  
trgw_0_13_10:275.0    3.4231499730E+01      0.0000000000E+00      hds                  
trgw_0_13_10:306.0    3.4235686230E+01      0.0000000000E+00      hds                  
trgw_0_13_10:32.0     3.4382737690E+01      0.0000000000E+00      hds                  
trgw_0_13_10:336.0    3.4234643890E+01      0.0000000000E+00      hds                  
trgw_0_13_10:367.0    3.4294122320E+01      0.0000000000E+00      hds                  
trgw_0_13_10:398.0    3.4298585730E+01      0.0000000000E+00      hds                  
trgw_0_13_10:426.0    3.4404788020E+01      0.0000000000E+00      hds                  
trgw_0_13_10:457.0    3.4395412630E+01      0.0000000000E+00      hds                  
trgw_0_13_10:487.0    3.4373189570E+01      0.0000000000E+00      hds                  
trgw_0_13_10:518.0    3.4327697450E+01      0.0000000000E+00      hds                  
trgw_0_13_10:548.0    3.4282542240E+01      0.0000000000E+00      hds                  
trgw_0_13_10:579.0    3.4241244240E+01      0.0000000000E+00      hds                  
trgw_0_13_10:61.0     3.4464278040E+01      0.0000000000E+00      hds                  
trgw_0_13_10:610.0    3.4205003330E+01      0.0000000000E+00      hds                  
trgw_0_13_10:640.0    3.4164218340E+01      0.0000000000E+00      hds                  
trgw_0_13_10:671.0    3.4138444690E+01      0.0000000000E+00      hds                  
trgw_0_13_10:701.0    3.4134528190E+01      0.0000000000E+00      hds                  
trgw_0_13_10:732.0    3.4137082190E+01      0.0000000000E+00      hds                  
trgw_0_13_10:92.0     3.4494872250E+01      0.0000000000E+00      hds                  
trgw_0_15_16:1.0      3.4206265530E+01      0.0000000000E+00      hds                  
trgw_0_15_16:122.0    3.4215344520E+01      0.0000000000E+00      hds                  
trgw_0_15_16:153.0    3.4203779640E+01      0.0000000000E+00      hds                  
trgw_0_15_16:183.0    3.4117483650E+01      0.0000000000E+00      hds                  
trgw_0_15_16:214.0    3.4082459750E+01      0.0000000000E+00      hds                  
trgw_0_15_16:245.0    3.4043473630E+01      0.0000000000E+00      hds                  
trgw_0_15_16:275.0    3.4025545370E+01      0.0000000000E+00      hds                  
trgw_0_15_16:306.0    3.4058632570E+01      0.0000000000E+00      hds                  
trgw_0_15_16:32.0     3.4183351300E+01      0.0000000000E+00      hds                  
trgw_0_15_16:336.0    3.4076469310E+01      0.0000000000E+00      hds                  
trgw_0_15_16:367.0    3.4189652090E+01      0.0000000000E+00      hds                  
trgw_0_15_16:398.0    3.4149962230E+01      0.0000000000E+00      hds                  
trgw_0_15_16:426.0    3.4293114060E+01      0.0000000000E+00      hds                  
trgw_0_15_16:457.0    3.4238048520E+01      0.0000000000E+00      hds                  
trgw_0_15_16:487.0    3.4181072070E+01      0.0000000000E+00      hds                  
trgw_0_15_16:518.0    3.4120279700E+01      0.0000000000E+00      hds                  
trgw_0_15_16:548.0    3.4068787050E+01      0.0000000000E+00      hds                  
trgw_0_15_16:579.0    3.4041308910E+01      0.0000000000E+00      hds                  
trgw_0_15_16:61.0     3.4331828590E+01      0.0000000000E+00      hds                  
trgw_0_15_16:610.0    3.4008951140E+01      0.0000000000E+00      hds                  
trgw_0_15_16:640.0    3.3972375540E+01      0.0000000000E+00      hds                  
trgw_0_15_16:671.0    3.3974941110E+01      0.0000000000E+00      hds                  
trgw_0_15_16:701.0    3.3982763590E+01      0.0000000000E+00      hds                  
trgw_0_15_16:732.0    3.4004113560E+01      0.0000000000E+00      hds                  
trgw_0_15_16:92.0     3.4329027310E+01      0.0000000000E+00      hds                  
trgw_0_21_10:1.0      3.4202400440E+01      0.0000000000E+00      hds                  
trgw_0_21_10:122.0    3.4273157700E+01      0.0000000000E+00      hds                  
trgw_0_21_10:153.0    3.4243984240E+01      0.0000000000E+00      hds                  
trgw_0_21_10:183.0    3.4127438540E+01      0.0000000000E+00      hds                  
trgw_0_21_10:214.0    3.4091980050E+01      0.0000000000E+00      hds                  
trgw_0_21_10:245.0    3.4018951150E+01      0.0000000000E+00      hds                  
trgw_0_21_10:275.0    3.3990972590E+01      0.0000000000E+00      hds                  
trgw_0_21_10:306.0    3.4017099940E+01      0.0000000000E+00      hds                  
trgw_0_21_10:32.0     3.4143014550E+01      0.0000000000E+00      hds                  
trgw_0_21_10:336.0    3.4024737150E+01      0.0000000000E+00      hds                  
trgw_0_21_10:367.0    3.4131996900E+01      0.0000000000E+00      hds                  
trgw_0_21_10:398.0    3.4126133850E+01      0.0000000000E+00      hds                  
trgw_0_21_10:426.0    3.4264720240E+01      0.0000000000E+00      hds                  
trgw_0_21_10:457.0    3.4237006770E+01      0.0000000000E+00      hds                  
trgw_0_21_10:487.0    3.4190035830E+01      0.0000000000E+00      hds                  
trgw_0_21_10:518.0    3.4140992420E+01      0.0000000000E+00      hds                  
trgw_0_21_10:548.0    3.4085947370E+01      0.0000000000E+00      hds                  
trgw_0_21_10:579.0    3.4026883000E+01      0.0000000000E+00      hds                  
trgw_0_21_10:61.0     3.4248584670E+01      0.0000000000E+00      hds                  
trgw_0_21_10:610.0    3.3972209140E+01      0.0000000000E+00      hds                  
trgw_0_21_10:640.0    3.3924132560E+01      0.0000000000E+00      hds                  
trgw_0_21_10:671.0    3.3911460710E+01      0.0000000000E+00      hds                  
trgw_0_21_10:701.0    3.3927017580E+01      0.0000000000E+00      hds                  
trgw_0_21_10:732.0    3.3929631390E+01      0.0000000000E+00      hds                  
trgw_0_21_10:92.0     3.4302580250E+01      0.0000000000E+00      hds                  
trgw_0_22_15:1.0      3.4029047110E+01      0.0000000000E+00      hds                  
trgw_0_22_15:122.0    3.4054933610E+01      0.0000000000E+00      hds                  
trgw_0_22_15:153.0    3.4074973630E+01      0.0000000000E+00      hds                  
trgw_0_22_15:183.0    3.3950717800E+01      0.0000000000E+00      hds                  
trgw_0_22_15:214.0    3.3931171450E+01      0.0000000000E+00      hds                  
trgw_0_22_15:245.0    3.3876782810E+01      0.0000000000E+00      hds                  
trgw_0_22_15:275.0    3.3867412220E+01      0.0000000000E+00      hds                  
trgw_0_22_15:306.0    3.3931857330E+01      0.0000000000E+00      hds                  
trgw_0_22_15:32.0     3.4001692700E+01      0.0000000000E+00      hds                  
trgw_0_22_15:336.0    3.3912421420E+01      0.0000000000E+00      hds                  
trgw_0_22_15:367.0    3.4030993500E+01      0.0000000000E+00      hds                  
trgw_0_22_15:398.0    3.3992932850E+01      0.0000000000E+00      hds                  
trgw_0_22_15:426.0    3.4129434300E+01      0.0000000000E+00      hds                  
trgw_0_22_15:457.0    3.4098869180E+01      0.0000000000E+00      hds                  
trgw_0_22_15:487.0    3.4029916240E+01      0.0000000000E+00      hds                  
trgw_0_22_15:518.0    3.3978900130E+01      0.0000000000E+00      hds                  
trgw_0_22_15:548.0    3.3930621400E+01      0.0000000000E+00      hds                  
trgw_0_22_15:579.0    3.3883707110E+01      0.0000000000E+00      hds                  
trgw_0_22_15:61.0     3.4117777660E+01      0.0000000000E+00      hds                  
trgw_0_22_15:610.0    3.3846860080E+01      0.0000000000E+00      hds                  
trgw_0_22_15:640.0    3.3813270620E+01      0.0000000000E+00      hds                  
trgw_0_22_15:671.0    3.3821583760E+01      0.0000000000E+00      hds                  
trgw_0_22_15:701.0    3.3850041170E+01      0.0000000000E+00      hds                  
trgw_0_22_15:732.0    3.3845503800E+01      0.0000000000E+00      hds                  
trgw_0_22_15:92.0     3.4125765540E+01      0.0000000000E+00      hds                  
trgw_0_24_4:1.0       3.4261261620E+01      0.0000000000E+00      hds                  
trgw_0_24_4:122.0     3.4503200770E+01      0.0000000000E+00      hds                  
trgw_0_24_4:153.0     3.4471632970E+01      0.0000000000E+00      hds                  
trgw_0_24_4:183.0     3.4376819780E+01      0.0000000000E+00      hds                  
trgw_0_24_4:214.0     3.4310734560E+01      0.0000000000E+00      hds                  
trgw_0_24_4:245.0     3.4249520650E+01      0.0000000000E+00      hds                  
trgw_0_24_4:275.0     3.4224404320E+01      0.0000000000E+00      hds                  
trgw_0_24_4:306.0     3.4249074490E+01      0.0000000000E+00      hds                  
trgw_0_24_4:32.0      3.4258634740E+01      0.0000000000E+00      hds                  
trgw_0_24_4:336.0     3.4305836980E+01      0.0000000000E+00      hds                  
trgw_0_24_4:367.0     3.4465621700E+01      0.0000000000E+00      hds                  
trgw_0_24_4:398.0     3.4423995560E+01      0.0000000000E+00      hds                  
trgw_0_24_4:426.0     3.4510993380E+01      0.0000000000E+00      hds                  
trgw_0_24_4:457.0     3.4515534880E+01      0.0000000000E+00      hds                  
trgw_0_24_4:487.0     3.4514846490E+01      0.0000000000E+00      hds                  
trgw_0_24_4:518.0     3.4449720940E+01      0.0000000000E+00      hds                  
trgw_0_24_4:548.0     3.4374661080E+01      0.0000000000E+00      hds                  
trgw_0_24_4:579.0     3.4308821030E+01      0.0000000000E+00      hds                  
trgw_0_24_4:61.0      3.4465892370E+01      0.0000000000E+00      hds                  
trgw_0_24_4:610.0     3.4236864870E+01      0.0000000000E+00      hds                  
trgw_0_24_4:640.0     3.4178011090E+01      0.0000000000E+00      hds                  
trgw_0_24_4:671.0     3.4142499010E+01      0.0000000000E+00      hds                  
trgw_0_24_4:701.0     3.4145102920E+01      0.0000000000E+00      hds                  
trgw_0_24_4:732.0     3.4120253560E+01      0.0000000000E+00      hds                  
trgw_0_24_4:92.0      3.4565036230E+01      0.0000000000E+00      hds                  
trgw_0_26_6:1.0       3.4052548570E+01      0.0000000000E+00      hds                  
trgw_0_26_6:122.0     3.4253534990E+01      0.0000000000E+00      hds                  
trgw_0_26_6:153.0     3.4200936450E+01      0.0000000000E+00      hds                  
trgw_0_26_6:183.0     3.4092593790E+01      0.0000000000E+00      hds                  
trgw_0_26_6:214.0     3.4025321720E+01      0.0000000000E+00      hds                  
trgw_0_26_6:245.0     3.3965593420E+01      0.0000000000E+00      hds                  
trgw_0_26_6:275.0     3.3949915000E+01      0.0000000000E+00      hds                  
trgw_0_26_6:306.0     3.3965518120E+01      0.0000000000E+00      hds                  
trgw_0_26_6:32.0      3.4052228150E+01      0.0000000000E+00      hds                  
trgw_0_26_6:336.0     3.4042776380E+01      0.0000000000E+00      hds                  
trgw_0_26_6:367.0     3.4173319100E+01      0.0000000000E+00      hds                  
trgw_0_26_6:398.0     3.4175354250E+01      0.0000000000E+00      hds                  
trgw_0_26_6:426.0     3.4279562280E+01      0.0000000000E+00      hds                  
trgw_0_26_6:457.0     3.4266243940E+01      0.0000000000E+00      hds                  
trgw_0_26_6:487.0     3.4240217030E+01      0.0000000000E+00      hds                  
trgw_0_26_6:518.0     3.4166164860E+01      0.0000000000E+00      hds                  
trgw_0_26_6:548.0     3.4090127510E+01      0.0000000000E+00      hds                  
trgw_0_26_6:579.0     3.4028926340E+01      0.0000000000E+00      hds                  
trgw_0_26_6:61.0      3.4216193680E+01      0.0000000000E+00      hds                  
trgw_0_26_6:610.0     3.3958202540E+01      0.0000000000E+00      hds                  
trgw_0_26_6:640.0     3.3893014180E+01      0.0000000000E+00      hds                  
trgw_0_26_6:671.0     3.3882390400E+01      0.0000000000E+00      hds                  
trgw_0_26_6:701.0     3.3890685970E+01      0.0000000000E+00      hds                  
trgw_0_26_6:732.0     3.3887144390E+01      0.0000000000E+00      hds                  
trgw_0_26_6:92.0      3.4308523680E+01      0.0000000000E+00      hds                  
trgw_0_29_15:1.0      3.3887481700E+01      0.0000000000E+00      hds                  
trgw_0_29_15:122.0    3.3915107420E+01      0.0000000000E+00      hds                  
trgw_0_29_15:153.0    3.3886752060E+01      0.0000000000E+00      hds                  
trgw_0_29_15:183.0    3.3823268300E+01      0.0000000000E+00      hds                  
trgw_0_29_15:214.0    3.3774067850E+01      0.0000000000E+00      hds                  
trgw_0_29_15:245.0    3.3720455830E+01      0.0000000000E+00      hds                  
trgw_0_29_15:275.0    3.3696424310E+01      0.0000000000E+00      hds                  
trgw_0_29_15:306.0    3.3714698290E+01      0.0000000000E+00      hds                  
trgw_0_29_15:32.0     3.3846475460E+01      0.0000000000E+00      hds                  
trgw_0_29_15:336.0    3.3725725760E+01      0.0000000000E+00      hds                  
trgw_0_29_15:367.0    3.3824196260E+01      0.0000000000E+00      hds                  
trgw_0_29_15:398.0    3.3811718810E+01      0.0000000000E+00      hds                  
trgw_0_29_15:426.0    3.3910590530E+01      0.0000000000E+00      hds                  
trgw_0_29_15:457.0    3.3938968910E+01      0.0000000000E+00      hds                  
trgw_0_29_15:487.0    3.3911345170E+01      0.0000000000E+00      hds                  
trgw_0_29_15:518.0    3.3881647870E+01      0.0000000000E+00      hds                  
trgw_0_29_15:548.0    3.3819241280E+01      0.0000000000E+00      hds                  
trgw_0_29_15:579.0    3.3761702400E+01      0.0000000000E+00      hds                  
trgw_0_29_15:61.0     3.3916854480E+01      0.0000000000E+00      hds                  
trgw_0_29_15:610.0    3.3711940690E+01      0.0000000000E+00      hds                  
trgw_0_29_15:640.0    3.3665738490E+01      0.0000000000E+00      hds                  
trgw_0_29_15:671.0    3.3649837980E+01      0.0000000000E+00      hds                  
trgw_0_29_15:701.0    3.3671205040E+01      0.0000000000E+00      hds                  
trgw_0_29_15:732.0    3.3663314240E+01      0.0000000000E+00      hds                  
trgw_0_29_15:92.0     3.3955253640E+01      0.0000000000E+00      hds                  
trgw_0_2_15:1.0       3.4527716490E+01      0.0000000000E+00      hds                  
trgw_0_2_15:122.0     3.4515060530E+01      0.0000000000E+00      hds                  
trgw_0_2_15:153.0     3.4501998190E+01      0.0000000000E+00      hds                  
trgw_0_2_15:183.0     3.4476752570E+01      0.0000000000E+00      hds                  
trgw_0_2_15:214.0     3.4436536760E+01      0.0000000000E+00      hds                  
trgw_0_2_15:245.0     3.4396485110E+01      0.0000000000E+00      hds                  
trgw_0_2_15:275.0     3.4366950370E+01      0.0000000000E+00      hds                  
trgw_0_2_15:306.0     3.4368222170E+01      0.0000000000E+00      hds                  
trgw_0_2_15:32.0      3.4489743630E+01      0.0000000000E+00      hds                  
trgw_0_2_15:336.0     3.4369891300E+01      0.0000000000E+00      hds                  
trgw_0_2_15:367.0     3.4484745080E+01      0.0000000000E+00      hds                  
trgw_0_2_15:398.0     3.4444157340E+01      0.0000000000E+00      hds                  
trgw_0_2_15:426.0     3.4522690320E+01      0.0000000000E+00      hds                  
trgw_0_2_15:457.0     3.4479666430E+01      0.0000000000E+00      hds                  
trgw_0_2_15:487.0     3.4458321270E+01      0.0000000000E+00      hds                  
trgw_0_2_15:518.0     3.4439096970E+01      0.0000000000E+00      hds                  
trgw_0_2_15:548.0     3.4405868720E+01      0.0000000000E+00      hds                  
trgw_0_2_15:579.0     3.4369925050E+01      0.0000000000E+00      hds                  
trgw_0_2_15:61.0      3.4552222520E+01      0.0000000000E+00      hds                  
trgw_0_2_15:610.0     3.4341299460E+01      0.0000000000E+00      hds                  
trgw_0_2_15:640.0     3.4313971260E+01      0.0000000000E+00      hds                  
trgw_0_2_15:671.0     3.4302901950E+01      0.0000000000E+00      hds                  
trgw_0_2_15:701.0     3.4297438510E+01      0.0000000000E+00      hds                  
trgw_0_2_15:732.0     3.4302177120E+01      0.0000000000E+00      hds                  
trgw_0_2_15:92.0      3.4566248340E+01      0.0000000000E+00      hds                  
trgw_0_2_9:1.0        3.5015913860E+01      0.0000000000E+00      hds                  
trgw_0_2_9:122.0      3.5043744060E+01      0.0000000000E+00      hds                  
trgw_0_2_9:153.0      3.5031097040E+01      0.0000000000E+00      hds                  
trgw_0_2_9:183.0      3.5009639690E+01      0.0000000000E+00      hds                  
trgw_0_2_9:214.0      3.4976183270E+01      0.0000000000E+00      hds                  
trgw_0_2_9:245.0      3.4933637260E+01      0.0000000000E+00      hds                  
trgw_0_2_9:275.0      3.4896596610E+01      0.0000000000E+00      hds                  
trgw_0_2_9:306.0      3.4880480490E+01      0.0000000000E+00      hds                  
trgw_0_2_9:32.0       3.4982032490E+01      0.0000000000E+00      hds                  
trgw_0_2_9:336.0      3.4848833980E+01      0.0000000000E+00      hds                  
trgw_0_2_9:367.0      3.4915083070E+01      0.0000000000E+00      hds                  
trgw_0_2_9:398.0      3.4900287840E+01      0.0000000000E+00      hds                  
trgw_0_2_9:426.0      3.4931727420E+01      0.0000000000E+00      hds                  
trgw_0_2_9:457.0      3.4970965640E+01      0.0000000000E+00      hds                  
trgw_0_2_9:487.0      3.4975656370E+01      0.0000000000E+00      hds                  
trgw_0_2_9:518.0      3.4956763620E+01      0.0000000000E+00      hds                  
trgw_0_2_9:548.0      3.4929699870E+01      0.0000000000E+00      hds                  
trgw_0_2_9:579.0      3.4886063870E+01      0.0000000000E+00      hds                  
trgw_0_2_9:61.0       3.5036768500E+01      0.0000000000E+00      hds                  
trgw_0_2_9:610.0      3.4838997070E+01      0.0000000000E+00      hds                  
trgw_0_2_9:640.0      3.4794135590E+01      0.0000000000E+00      hds                  
trgw_0_2_9:671.0      3.4750859160E+01      0.0000000000E+00      hds                  
trgw_0_2_9:701.0      3.4723958070E+01      0.0000000000E+00      hds                  
trgw_0_2_9:732.0      3.4713918490E+01      0.0000000000E+00      hds                  
trgw_0_2_9:92.0       3.5063600370E+01      0.0000000000E+00      hds                  
trgw_0_33_7:1.0       3.3688919400E+01      0.0000000000E+00      hds                  
trgw_0_33_7:122.0     3.3779263040E+01      0.0000000000E+00      hds                  
trgw_0_33_7:153.0     3.3721042160E+01      0.0000000000E+00      hds                  
trgw_0_33_7:183.0     3.3648108220E+01      0.0000000000E+00      hds                  
trgw_0_33_7:214.0     3.3590075450E+01      0.0000000000E+00      hds                  
trgw_0_33_7:245.0     3.3540665280E+01      0.0000000000E+00      hds                  
trgw_0_33_7:275.0     3.3532028930E+01      0.0000000000E+00      hds                  
trgw_0_33_7:306.0     3.3535413170E+01      0.0000000000E+00      hds                  
trgw_0_33_7:32.0      3.3651385820E+01      0.0000000000E+00      hds                  
trgw_0_33_7:336.0     3.3566645370E+01      0.0000000000E+00      hds                  
trgw_0_33_7:367.0     3.3670493010E+01      0.0000000000E+00      hds                  
trgw_0_33_7:398.0     3.3665856150E+01      0.0000000000E+00      hds                  
trgw_0_33_7:426.0     3.3783520310E+01      0.0000000000E+00      hds                  
trgw_0_33_7:457.0     3.3777795150E+01      0.0000000000E+00      hds                  
trgw_0_33_7:487.0     3.3760181600E+01      0.0000000000E+00      hds                  
trgw_0_33_7:518.0     3.3709321590E+01      0.0000000000E+00      hds                  
trgw_0_33_7:548.0     3.3649698140E+01      0.0000000000E+00      hds                  
trgw_0_33_7:579.0     3.3593660490E+01      0.0000000000E+00      hds                  