# BAS6 package for MODFLOW-NWT generated by Flopy 3.3.5
FREE
OPEN/CLOSE            .\ibound_layer_1.ref               1     (FREE) -1 ibound_layer_0                
   -999.99
OPEN/CLOSE              .\strt_layer_1.ref               1     (FREE) -1 strt_layer_0                  
