# SFR package for MODFLOW-NWT generated by Flopy 3.3.5
-40 40 0 0 86400.00000000 0.00010000 0 60 0 10 1 30.00000000 0.00000000 
1 1 15 1 1 250.0
1 2 15 2 1 250.0
1 3 15 3 1 250.0
1 4 15 4 1 250.0
1 5 15 5 1 250.0
1 6 15 6 1 250.0
1 7 15 7 1 250.0
1 8 15 8 1 250.0
1 9 15 9 1 250.0
1 10 15 10 1 250.0
1 11 15 11 1 250.0
1 12 15 12 1 250.0
1 13 15 13 1 250.0
1 14 15 14 1 250.0
1 15 15 15 1 250.0
1 16 15 16 1 250.0
1 17 15 17 1 250.0
1 18 15 18 1 250.0
1 19 15 19 1 250.0
1 20 15 20 1 250.0
1 21 15 21 1 250.0
1 22 15 22 1 250.0
1 23 15 23 1 250.0
1 24 15 24 1 250.0
1 25 15 25 1 250.0
1 26 15 26 1 250.0
1 27 15 27 1 250.0
1 28 15 28 1 250.0
1 29 15 29 1 250.0
1 30 15 30 1 250.0
1 31 15 31 1 250.0
1 32 15 32 1 250.0
1 33 15 33 1 250.0
1 34 15 34 1 250.0
1 35 15 35 1 250.0
1 36 15 36 1 250.0
1 37 15 37 1 250.0
1 38 15 38 1 250.0
1 39 15 39 1 250.0
1 40 15 40 1 250.0
40 0 0 0
1 1 2 0 0 0 0 0 0.1 
0.1 1.0 25.0 10.0 
0.1 1.0 24.75 10.0 
2 1 3 0 0 0 0 0 0.1 
0.1 1.0 24.75 10.0 
0.1 1.0 24.5 10.0 
3 1 4 0 0 0 0 0 0.1 
0.1 1.0 24.5 10.0 
0.1 1.0 24.25 10.0 
4 1 5 0 0 0 0 0 0.1 
0.1 1.0 24.25 10.0 
0.1 1.0 24.0 10.0 
5 1 6 0 0 0 0 0 0.1 
0.1 1.0 24.0 10.0 
0.1 1.0 23.75 10.0 
6 1 7 0 0 0 0 0 0.1 
0.1 1.0 23.75 10.0 
0.1 1.0 23.5 10.0 
7 1 8 0 0 0 0 0 0.1 
0.1 1.0 23.5 10.0 
0.1 1.0 23.25 10.0 
8 1 9 0 0 0 0 0 0.1 
0.1 1.0 23.25 10.0 
0.1 1.0 23.0 10.0 
9 1 10 0 0 0 0 0 0.1 
0.1 1.0 23.0 10.0 
0.1 1.0 22.75 10.0 
10 1 11 0 0 0 0 0 0.1 
0.1 1.0 22.75 10.0 
0.1 1.0 22.5 10.0 
11 1 12 0 0 0 0 0 0.1 
0.1 1.0 22.5 10.0 
0.1 1.0 22.25 10.0 
12 1 13 0 0 0 0 0 0.1 
0.1 1.0 22.25 10.0 
0.1 1.0 22.0 10.0 
13 1 14 0 0 0 0 0 0.1 
0.1 1.0 22.0 10.0 
0.1 1.0 21.75 10.0 
14 1 15 0 0 0 0 0 0.1 
0.1 1.0 21.75 10.0 
0.1 1.0 21.5 10.0 
15 1 16 0 0 0 0 0 0.1 
0.1 1.0 21.5 10.0 
0.1 1.0 21.25 10.0 
16 1 17 0 0 0 0 0 0.1 
0.1 1.0 21.25 10.0 
0.1 1.0 21.0 10.0 
17 1 18 0 0 0 0 0 0.1 
0.1 1.0 21.0 10.0 
0.1 1.0 20.75 10.0 
18 1 19 0 0 0 0 0 0.1 
0.1 1.0 20.75 10.0 
0.1 1.0 20.5 10.0 
19 1 20 0 0 0 0 0 0.1 
0.1 1.0 20.5 10.0 
0.1 1.0 20.25 10.0 
20 1 21 0 0 0 0 0 0.1 
0.1 1.0 20.25 10.0 
0.1 1.0 20.0 10.0 
21 1 22 0 0 0 0 0 0.1 
0.1 1.0 20.0 10.0 
0.1 1.0 19.75 10.0 
22 1 23 0 0 0 0 0 0.1 
0.1 1.0 19.75 10.0 
0.1 1.0 19.5 10.0 
23 1 24 0 0 0 0 0 0.1 
0.1 1.0 19.5 10.0 
0.1 1.0 19.25 10.0 
24 1 25 0 0 0 0 0 0.1 
0.1 1.0 19.25 10.0 
0.1 1.0 19.0 10.0 
25 1 26 0 0 0 0 0 0.1 
0.1 1.0 19.0 10.0 
0.1 1.0 18.75 10.0 
26 1 27 0 0 0 0 0 0.1 
0.1 1.0 18.75 10.0 
0.1 1.0 18.5 10.0 
27 1 28 0 0 0 0 0 0.1 
0.1 1.0 18.5 10.0 
0.1 1.0 18.25 10.0 
28 1 29 0 0 0 0 0 0.1 
0.1 1.0 18.25 10.0 
0.1 1.0 18.0 10.0 
29 1 30 0 0 0 0 0 0.1 
0.1 1.0 18.0 10.0 
0.1 1.0 17.75 10.0 
30 1 31 0 0 0 0 0 0.1 
0.1 1.0 17.75 10.0 
0.1 1.0 17.5 10.0 
31 1 32 0 0 0 0 0 0.1 
0.1 1.0 17.5 10.0 
0.1 1.0 17.25 10.0 
32 1 33 0 0 0 0 0 0.1 
0.1 1.0 17.25 10.0 
0.1 1.0 17.0 10.0 
33 1 34 0 0 0 0 0 0.1 
0.1 1.0 17.0 10.0 
0.1 1.0 16.75 10.0 
34 1 35 0 0 0 0 0 0.1 
0.1 1.0 16.75 10.0 
0.1 1.0 16.5 10.0 
35 1 36 0 0 0 0 0 0.1 
0.1 1.0 16.5 10.0 
0.1 1.0 16.25 10.0 
36 1 37 0 0 0 0 0 0.1 
0.1 1.0 16.25 10.0 
0.1 1.0 16.0 10.0 
37 1 38 0 0 0 0 0 0.1 
0.1 1.0 16.0 10.0 
0.1 1.0 15.75 10.0 
38 1 39 0 0 0 0 0 0.1 
0.1 1.0 15.75 10.0 
0.1 1.0 15.5 10.0 
39 1 40 0 0 0 0 0 0.1 
0.1 1.0 15.5 10.0 
0.1 1.0 15.25 10.0 
40 1 0 0 0 0 0 0 0.1 
0.1 1.0 15.25 10.0 
0.1 1.0 15.0 10.0 
-40 0 0 0
-40 0 0 0
