MODPATH_PATHLINE_FILE 6 0                                                       
 1   0.000000000000000E+00
END HEADER
         1     1    -1     2   0.182600000000000E+04   0.625000000000000E+03   0.637500000000000E+04   0.350000000000000E+02    1   15    3  1  0.5000000E+00   0.5000000E+00   0.1000000E+01     1
         1     1    -1     2   0.220281199929299E+04   0.636626324250833E+03   0.625000000000000E+04   0.349754090000000E+02    1   16    3  1  0.5465053E+00   0.1000000E+01   0.9990000E+00     1
         1     1    -1     2   0.277337855135457E+04   0.648399032262991E+03   0.600000000000000E+04   0.349742241000000E+02    1   17    3  1  0.5935961E+00   0.1000000E+01   0.9990000E+00     1
         1     1    -1     2   0.321509889364781E+04   0.645703268926446E+03   0.575000000000000E+04   0.349719156000000E+02    1   18    3  1  0.5828131E+00   0.1000000E+01   0.9990000E+00     1
         1     1    -1     2   0.358616119794070E+04   0.650067610558380E+03   0.550000000000000E+04   0.349710632000000E+02    1   19    3  1  0.6002704E+00   0.1000000E+01   0.9990000E+00     1
         1     1    -1     2   0.365100000000000E+04   0.652551988512632E+03   0.545100111793682E+04   0.349710632000000E+02    1   19    3  1  0.6102080E+00   0.8040045E+00   0.9990000E+00     1
         1     1    -1     3   0.365100000000000E+04   0.652551988512632E+03   0.545100111793682E+04   0.349710632000000E+02    1   19    3  1  0.6102080E+00   0.8040045E+00   0.9990000E+00     2
         1     1    -1     3   0.402761439144791E+04   0.660920604153488E+03   0.525000000000000E+04   0.349689943000000E+02    1   20    3  1  0.6436824E+00   0.1000000E+01   0.9990000E+00     2
         1     1    -1     3   0.446489346605855E+04   0.681072599520692E+03   0.500000000000000E+04   0.349728784000000E+02    1   21    3  1  0.7242904E+00   0.1000000E+01   0.9990000E+00     2
         1     1    -1     3   0.481314230212690E+04   0.714109715483253E+03   0.475000000000000E+04   0.349697303000000E+02    1   22    3  1  0.8564389E+00   0.1000000E+01   0.9990000E+00     2
         1     1    -1     3   0.508374409579962E+04   0.750000000000000E+03   0.456525253226015E+04   0.349732807000000E+02    1   22    4  1  0.0000000E+00   0.2610101E+00   0.9990000E+00     2
         1     1    -1     3   0.514412984759273E+04   0.758942878443843E+03   0.450000000000000E+04   0.349736354000000E+02    1   23    4  1  0.3577151E-01   0.1000000E+01   0.9990000E+00     2
         1     1    -1     3   0.541255984312406E+04   0.890599474168267E+03   0.425000000000000E+04   0.349743852000000E+02    1   24    4  1  0.5623979E+00   0.1000000E+01   0.9990000E+00     2
         1     1    -1     3   0.558045616049668E+04   0.100000000000000E+04   0.412940503428344E+04   0.349760120000000E+02    1   24    5  1  0.0000000E+00   0.5176201E+00   0.9990000E+00     2
         1     1    -1     3   0.577293407918694E+04   0.118121282800038E+04   0.400000000000000E+04   0.349761070000000E+02    1   25    5  1  0.7248513E+00   0.1000000E+01   0.9990000E+00     2
         1     1    -1     3   0.585965372334445E+04   0.125000000000000E+04   0.395102135568661E+04   0.349702416000000E+02    1   25    6  1  0.0000000E+00   0.8040854E+00   0.9990000E+00     2
         1     1    -1     3   0.621663983274390E+04   0.150000000000000E+04   0.386451416044805E+04   0.349707991000000E+02    1   25    7  1  0.0000000E+00   0.4580566E+00   0.9990000E+00     2
         1     1    -1     3   0.656673374843643E+04   0.175000000000000E+04   0.384363766830571E+04   0.349706034000000E+02    1   25    8  1  0.0000000E+00   0.3745507E+00   0.9990000E+00     2
         1     1    -1     3   0.697392684451609E+04   0.200000000000000E+04   0.382718576674267E+04   0.349717668000000E+02    1   25    9  1  0.0000000E+00   0.3087431E+00   0.9990000E+00     2
         1     1    -1     3   0.740423374018765E+04   0.225000000000000E+04   0.378325241521282E+04   0.349667813000000E+02    1   25   10  1  0.0000000E+00   0.1330097E+00   0.9990000E+00     2
         1     1    -1     3   0.750757817184876E+04   0.229951900639633E+04   0.375000000000000E+04   0.349677051000000E+02    1   26   10  1  0.1980760E+00   0.1000000E+01   0.9990000E+00     2
         1     1    -1     3   0.799286288517777E+04   0.250000000000000E+04   0.364369340473622E+04   0.349654493500000E+02    1   26   11  1  0.0000000E+00   0.5747736E+00   0.9990000E+00     2
         1     1    -1     3   0.888882566150623E+04   0.275000000000000E+04   0.356158315649232E+04   0.349656372500000E+02    1   26   12  1  0.0000000E+00   0.2463326E+00   0.9990000E+00     2
         1     1    -1     3   0.918940655750657E+04   0.285637218412492E+04   0.350000000000000E+04   0.349655415900000E+02    1   27   12  1  0.4254887E+00   0.1000000E+01   0.9990000E+00     2
         1     1    -1     3   0.968057465767326E+04   0.300000000000000E+04   0.339831980809960E+04   0.349654242700000E+02    1   27   13  1  0.0000000E+00   0.5932792E+00   0.9990000E+00     2
         1     1    -1     3   0.104658792600927E+05   0.325000000000000E+04   0.325349757691036E+04   0.349654677500000E+02    1   27   14  1  0.0000000E+00   0.1399031E-01   0.9990000E+00     2
         1     1    -1     3   0.104826806877263E+05   0.325542235750868E+04   0.325000000000000E+04   0.349651862100000E+02    1   28   14  1  0.2168943E-01   0.1000000E+01   0.9990000E+00     2
         1     1    -1     3   0.111738129671839E+05   0.350000000000000E+04   0.310303178612531E+04   0.349652102900000E+02    1   28   15  1  0.0000000E+00   0.4121271E+00   0.9990000E+00     2
         1     1    -1     3   0.116009632116954E+05   0.359253020540661E+04   0.300000000000000E+04   0.349656895600000E+02    1   29   15  1  0.3701208E+00   0.1000000E+01   0.9990000E+00     2
         1     1    -1     3   0.126310581186774E+05   0.363629588464517E+04   0.275000000000000E+04   0.349650139450000E+02    1   30   15  1  0.5451835E+00   0.1000000E+01   0.9990000E+00     2
         1     1    -1     3   0.137588484037635E+05   0.362924507435941E+04   0.250000000000000E+04   0.349654124600000E+02    1   31   15  1  0.5169803E+00   0.1000000E+01   0.9990000E+00     2
         1     1    -1     3   0.152285842698741E+05   0.363158725540571E+04   0.225000000000000E+04   0.349655694900000E+02    1   32   15  1  0.5263490E+00   0.1000000E+01   0.9990000E+00     2
         1     1    -1     3   0.171840381272856E+05   0.360355371693315E+04   0.200000000000000E+04   0.349657109100000E+02    1   33   15  1  0.4142149E+00   0.1000000E+01   0.9990000E+00     2
         1     1    -1     3   0.186659222064079E+05   0.350000000000000E+04   0.176972984372359E+04   0.349654654100000E+02    1   33   14  1  0.1000000E+01   0.7891937E-01   0.9990000E+00     2
         1     1    -1     3   0.187113157867484E+05   0.349869778352699E+04   0.175000000000000E+04   0.349653331100000E+02    1   34   14  1  0.9947911E+00   0.1000000E+01   0.9990000E+00     2
         1     1    -1     3   0.194808618413009E+05   0.325000000000000E+04   0.152385156016735E+04   0.349652656100000E+02    1   34   13  1  0.1000000E+01   0.9540624E-01   0.9990000E+00     2
         1     1    -1     3   0.197942114518804E+05   0.300000000000000E+04   0.155541353860873E+04   0.349656600500000E+02    1   34   12  1  0.1000000E+01   0.2216542E+00   0.9990000E+00     2
         1     1    -1     3   0.197942114518804E+05   0.300000000000000E+04   0.155541353860873E+04   0.349656600500000E+02    1   34   12  1  0.1000000E+01   0.2216542E+00   0.9990000E+00     2
