MODPATH_ENDPOINT_FILE 6 0                                                       
 1          1          1          1   0.000000000000000E+00
         0          0          1          0          0          0
         1
part            
END HEADER
          1     1  2   0.182600000000000E+04   0.197942114518804E+05  1    1   15    3 6          1   0.5000000E+00   0.5000000E+00   0.1000000E+01   0.625000000000000E+03   0.637500000000000E+04   0.350000000000000E+02  1    1   34   12 2          1   0.1000000E+01   0.2216542E+00   0.9990000E+00   0.300000000000000E+04   0.155541353860873E+04   0.349656600500000E+02 part_0000
