# File generated by Flopy version 3.3.6 on 05/06/2022 at 17:25:10.
BEGIN GRIDDATA
  strt  LAYERED
    OPEN/CLOSE  'freyberg6.ic_strt_layer1.txt'  FACTOR  1.0
    OPEN/CLOSE  'freyberg6.ic_strt_layer2.txt'  FACTOR  1.0
    OPEN/CLOSE  'freyberg6.ic_strt_layer3.txt'  FACTOR  1.0
END GRIDDATA

