
MODPATH Version 7.2.002 PROVISIONAL 
Program compiled Nov 23 2021 09:33:21 with IFORT compiler (ver. 19.0.5)         
 
This software has been approved for release by the U.S. Geological
Survey (USGS). Although the software has been subjected to rigorous
review, the USGS reserves the right to update the software as needed
pursuant to further analysis and review. No warranty, expressed or
implied, is made by the USGS or the U.S. Government as to the
functionality of the software and related material nor shall the
fact of release constitute any such warranty. Furthermore, the
software is released on condition that neither the USGS nor the U.S.
Government shall be held liable for any damages resulting from its
authorized or unauthorized use. Also refer to the USGS Water
Resources Software User Rights Notice for complete use, copyright,
and distribution information.
 

MODPATH name file data
----------------------
   MPBAS File: freyberg_mp.mpbas
  GRBDIS File: freyberg6.dis.grb
    TDIS File: freyberg6.tdis
    HEAD File: freyberg6_freyberg.hds
  BUDGET File: freyberg6_freyberg.cbc

Grid data
---------
Grid file type: MODFLOW-6 DIS binary grid file.
Time discretization file type: MODFLOW-6 time discretization file.
 # File generated by Flopy version 3.3.6 on 05/06/2022 at 17:25:10.
 
 Time discretization file data
 -----------------------------
 Stress period count =        732
 Period length:     3652.50000 Time step count:         1 Time step multiplier:        1.00000
 Period length:        1.00000 Time step count:         1 Time step multiplier:        1.00000
 Period length:        1.00000 Time step count:         1 Time step multiplier:        1.00000
 Period length:        1.00000 Time step count:         1 Time step multiplier:        1.00000
 Period length:        1.00000 Time step count:         1 Time step multiplier:        1.00000
 Period length:        1.00000 Time step count:         1 Time step multiplier:        1.00000
 Period length:        1.00000 Time step count:         1 Time step multiplier:        1.00000
 Period length:        1.00000 Time step count:         1 Time step multiplier:        1.00000
 Period length:        1.00000 Time step count:         1 Time step multiplier:        1.00000
 Period length:        1.00000 Time step count:         1 Time step multiplier:        1.00000
 Period length:        1.00000 Time step count:         1 Time step multiplier:        1.00000
 Period length:        1.00000 Time step count:         1 Time step multiplier:        1.00000
 Period length:        1.00000 Time step count:         1 Time step multiplier:        1.00000
 Period length:        1.00000 Time step count:         1 Time step multiplier:        1.00000
 Period length:        1.00000 Time step count:         1 Time step multiplier:        1.00000
 Period length:        1.00000 Time step count:         1 Time step multiplier:        1.00000
 Period length:        1.00000 Time step count:         1 Time step multiplier:        1.00000
 Period length:        1.00000 Time step count:         1 Time step multiplier:        1.00000
 Period length:        1.00000 Time step count:         1 Time step multiplier:        1.00000
 Period length:        1.00000 Time step count:         1 Time step multiplier:        1.00000
 Period length:        1.00000 Time step count:         1 Time step multiplier:        1.00000
 Period length:        1.00000 Time step count:         1 Time step multiplier:        1.00000
 Period length:        1.00000 Time step count:         1 Time step multiplier:        1.00000
 Period length:        1.00000 Time step count:         1 Time step multiplier:        1.00000
 Period length:        1.00000 Time step count:         1 Time step multiplier:        1.00000
 Period length:        1.00000 Time step count:         1 Time step multiplier:        1.00000
 Period length:        1.00000 Time step count:         1 Time step multiplier:        1.00000
 Period length:        1.00000 Time step count:         1 Time step multiplier:        1.00000
 Period length:        1.00000 Time step count:         1 Time step multiplier:        1.00000
 Period length:        1.00000 Time step count:         1 Time step multiplier:        1.00000
 Period length:        1.00000 Time step count:         1 Time step multiplier:        1.00000
 Period length:        1.00000 Time step count:         1 Time step multiplier:        1.00000
 Period length:        1.00000 Time step count:         1 Time step multiplier:        1.00000
 Period length:        1.00000 Time step count:         1 Time step multiplier:        1.00000
 Period length:        1.00000 Time step count:         1 Time step multiplier:        1.00000
 Period length:        1.00000 Time step count:         1 Time step multiplier:        1.00000
 Period length:        1.00000 Time step count:         1 Time step multiplier:        1.00000
 Period length:        1.00000 Time step count:         1 Time step multiplier:        1.00000
 Period length:        1.00000 Time step count:         1 Time step multiplier:        1.00000
 Period length:        1.00000 Time step count:         1 Time step multiplier:        1.00000
 Period length:        1.00000 Time step count:         1 Time step multiplier:        1.00000
 Period length:        1.00000 Time step count:         1 Time step multiplier:        1.00000
 Period length:        1.00000 Time step count:         1 Time step multiplier:        1.00000
 Period length:        1.00000 Time step count:         1 Time step multiplier:        1.00000
 Period length:        1.00000 Time step count:         1 Time step multiplier:        1.00000
 Period length:        1.00000 Time step count:         1 Time step multiplier:        1.00000
 Period length:        1.00000 Time step count:         1 Time step multiplier:        1.00000
 Period length:        1.00000 Time step count:         1 Time step multiplier:        1.00000
 Period length:        1.00000 Time step count:         1 Time step multiplier:        1.00000
 Period length:        1.00000 Time step count:         1 Time step multiplier:        1.00000
 Period length:        1.00000 Time step count:         1 Time step multiplier:        1.00000
 Period length:        1.00000 Time step count:         1 Time step multiplier:        1.00000
 Period length:        1.00000 Time step count:         1 Time step multiplier:        1.00000
 Period length:        1.00000 Time step count:         1 Time step multiplier:        1.00000
 Period length:        1.00000 Time step count:         1 Time step multiplier:        1.00000
 Period length:        1.00000 Time step count:         1 Time step multiplier:        1.00000
 Period length:        1.00000 Time step count:         1 Time step multiplier:        1.00000
 Period length:        1.00000 Time step count:         1 Time step multiplier:        1.00000
 Period length:        1.00000 Time step count:         1 Time step multiplier:        1.00000
 Period length:        1.00000 Time step count:         1 Time step multiplier:        1.00000
 Period length:        1.00000 Time step count:         1 Time step multiplier:        1.00000
 Period length:        1.00000 Time step count:         1 Time step multiplier:        1.00000
 Period length:        1.00000 Time step count:         1 Time step multiplier:        1.00000
 Period length:        1.00000 Time step count:         1 Time step multiplier:        1.00000
 Period length:        1.00000 Time step count:         1 Time step multiplier:        1.00000
 Period length:        1.00000 Time step count:         1 Time step multiplier:        1.00000
 Period length:        1.00000 Time step count:         1 Time step multiplier:        1.00000
 Period length:        1.00000 Time step count:         1 Time step multiplier:        1.00000
 Period length:        1.00000 Time step count:         1 Time step multiplier:        1.00000
 Period length:        1.00000 Time step count:         1 Time step multiplier:        1.00000
 Period length:        1.00000 Time step count:         1 Time step multiplier:        1.00000
 Period length:        1.00000 Time step count:         1 Time step multiplier:        1.00000
 Period length:        1.00000 Time step count:         1 Time step multiplier:        1.00000
 Period length:        1.00000 Time step count:         1 Time step multiplier:        1.00000
 Period length:        1.00000 Time step count:         1 Time step multiplier:        1.00000
 Period length:        1.00000 Time step count:         1 Time step multiplier:        1.00000
 Period length:        1.00000 Time step count:         1 Time step multiplier:        1.00000
 Period length:        1.00000 Time step count:         1 Time step multiplier:        1.00000
 Period length:        1.00000 Time step count:         1 Time step multiplier:        1.00000
 Period length:        1.00000 Time step count:         1 Time step multiplier:        1.00000
 Period length:        1.00000 Time step count:         1 Time step multiplier:        1.00000
 Period length:        1.00000 Time step count:         1 Time step multiplier:        1.00000
 Period length:        1.00000 Time step count:         1 Time step multiplier:        1.00000
 Period length:        1.00000 Time step count:         1 Time step multiplier:        1.00000
 Period length:        1.00000 Time step count:         1 Time step multiplier:        1.00000
 Period length:        1.00000 Time step count:         1 Time step multiplier:        1.00000
 Period length:        1.00000 Time step count:         1 Time step multiplier:        1.00000
 Period length:        1.00000 Time step count:         1 Time step multiplier:        1.00000
 Period length:        1.00000 Time step count:         1 Time step multiplier:        1.00000
 Period length:        1.00000 Time step count:         1 Time step multiplier:        1.00000
 Period length:        1.00000 Time step count:         1 Time step multiplier:        1.00000
 Period length:        1.00000 Time step count:         1 Time step multiplier:        1.00000
 Period length:        1.00000 Time step count:         1 Time step multiplier:        1.00000
 Period length:        1.00000 Time step count:         1 Time step multiplier:        1.00000
 Period length:        1.00000 Time step count:         1 Time step multiplier:        1.00000
 Period length:        1.00000 Time step count:         1 Time step multiplier:        1.00000
 Period length:        1.00000 Time step count:         1 Time step multiplier:        1.00000
 Period length:        1.00000 Time step count:         1 Time step multiplier:        1.00000
 Period length:        1.00000 Time step count:         1 Time step multiplier:        1.00000
 Period length:        1.00000 Time step count:         1 Time step multiplier:        1.00000
 Period length:        1.00000 Time step count:         1 Time step multiplier:        1.00000
 Period length:        1.00000 Time step count:         1 Time step multiplier:        1.00000
 Period length:        1.00000 Time step count:         1 Time step multiplier:        1.00000
 Period length:        1.00000 Time step count:         1 Time step multiplier:        1.00000
 Period length:        1.00000 Time step count:         1 Time step multiplier:        1.00000
 Period length:        1.00000 Time step count:         1 Time step multiplier:        1.00000
 Period length:        1.00000 Time step count:         1 Time step multiplier:        1.00000
 Period length:        1.00000 Time step count:         1 Time step multiplier:        1.00000
 Period length:        1.00000 Time step count:         1 Time step multiplier:        1.00000
 Period length:        1.00000 Time step count:         1 Time step multiplier:        1.00000
 Period length:        1.00000 Time step count:         1 Time step multiplier:        1.00000
 Period length:        1.00000 Time step count:         1 Time step multiplier:        1.00000
 Period length:        1.00000 Time step count:         1 Time step multiplier:        1.00000
 Period length:        1.00000 Time step count:         1 Time step multiplier:        1.00000
 Period length:        1.00000 Time step count:         1 Time step multiplier:        1.00000
 Period length:        1.00000 Time step count:         1 Time step multiplier:        1.00000
 Period length:        1.00000 Time step count:         1 Time step multiplier:        1.00000
 Period length:        1.00000 Time step count:         1 Time step multiplier:        1.00000
 Period length:        1.00000 Time step count:         1 Time step multiplier:        1.00000
 Period length:        1.00000 Time step count:         1 Time step multiplier:        1.00000
 Period length:        1.00000 Time step count:         1 Time step multiplier:        1.00000
 Period length:        1.00000 Time step count:         1 Time step multiplier:        1.00000
 Period length:        1.00000 Time step count:         1 Time step multiplier:        1.00000
 Period length:        1.00000 Time step count:         1 Time step multiplier:        1.00000
 Period length:        1.00000 Time step count:         1 Time step multiplier:        1.00000
 Period length:        1.00000 Time step count:         1 Time step multiplier:        1.00000
 Period length:        1.00000 Time step count:         1 Time step multiplier:        1.00000
 Period length:        1.00000 Time step count:         1 Time step multiplier:        1.00000
 Period length:        1.00000 Time step count:         1 Time step multiplier:        1.00000
 Period length:        1.00000 Time step count:         1 Time step multiplier:        1.00000
 Period length:        1.00000 Time step count:         1 Time step multiplier:        1.00000
 Period length:        1.00000 Time step count:         1 Time step multiplier:        1.00000
 Period length:        1.00000 Time step count:         1 Time step multiplier:        1.00000
 Period length:        1.00000 Time step count:         1 Time step multiplier:        1.00000
 Period length:        1.00000 Time step count:         1 Time step multiplier:        1.00000
 Period length:        1.00000 Time step count:         1 Time step multiplier:        1.00000
 Period length:        1.00000 Time step count:         1 Time step multiplier:        1.00000
 Period length:        1.00000 Time step count:         1 Time step multiplier:        1.00000
 Period length:        1.00000 Time step count:         1 Time step multiplier:        1.00000
 Period length:        1.00000 Time step count:         1 Time step multiplier:        1.00000
 Period length:        1.00000 Time step count:         1 Time step multiplier:        1.00000
 Period length:        1.00000 Time step count:         1 Time step multiplier:        1.00000
 Period length:        1.00000 Time step count:         1 Time step multiplier:        1.00000
 Period length:        1.00000 Time step count:         1 Time step multiplier:        1.00000
 Period length:        1.00000 Time step count:         1 Time step multiplier:        1.00000
 Period length:        1.00000 Time step count:         1 Time step multiplier:        1.00000
 Period length:        1.00000 Time step count:         1 Time step multiplier:        1.00000
 Period length:        1.00000 Time step count:         1 Time step multiplier:        1.00000
 Period length:        1.00000 Time step count:         1 Time step multiplier:        1.00000
 Period length:        1.00000 Time step count:         1 Time step multiplier:        1.00000
 Period length:        1.00000 Time step count:         1 Time step multiplier:        1.00000
 Period length:        1.00000 Time step count:         1 Time step multiplier:        1.00000
 Period length:        1.00000 Time step count:         1 Time step multiplier:        1.00000
 Period length:        1.00000 Time step count:         1 Time step multiplier:        1.00000
 Period length:        1.00000 Time step count:         1 Time step multiplier:        1.00000
 Period length:        1.00000 Time step count:         1 Time step multiplier:        1.00000
 Period length:        1.00000 Time step count:         1 Time step multiplier:        1.00000
 Period length:        1.00000 Time step count:         1 Time step multiplier:        1.00000
 Period length:        1.00000 Time step count:         1 Time step multiplier:        1.00000
 Period length:        1.00000 Time step count:         1 Time step multiplier:        1.00000
 Period length:        1.00000 Time step count:         1 Time step multiplier:        1.00000
 Period length:        1.00000 Time step count:         1 Time step multiplier:        1.00000
 Period length:        1.00000 Time step count:         1 Time step multiplier:        1.00000
 Period length:        1.00000 Time step count:         1 Time step multiplier:        1.00000
 Period length:        1.00000 Time step count:         1 Time step multiplier:        1.00000
 Period length:        1.00000 Time step count:         1 Time step multiplier:        1.00000
 Period length:        1.00000 Time step count:         1 Time step multiplier:        1.00000
 Period length:        1.00000 Time step count:         1 Time step multiplier:        1.00000
 Period length:        1.00000 Time step count:         1 Time step multiplier:        1.00000
 Period length:        1.00000 Time step count:         1 Time step multiplier:        1.00000
 Period length:        1.00000 Time step count:         1 Time step multiplier:        1.00000
 Period length:        1.00000 Time step count:         1 Time step multiplier:        1.00000
 Period length:        1.00000 Time step count:         1 Time step multiplier:        1.00000
 Period length:        1.00000 Time step count:         1 Time step multiplier:        1.00000
 Period length:        1.00000 Time step count:         1 Time step multiplier:        1.00000
 Period length:        1.00000 Time step count:         1 Time step multiplier:        1.00000
 Period length:        1.00000 Time step count:         1 Time step multiplier:        1.00000
 Period length:        1.00000 Time step count:         1 Time step multiplier:        1.00000
 Period length:        1.00000 Time step count:         1 Time step multiplier:        1.00000
 Period length:        1.00000 Time step count:         1 Time step multiplier:        1.00000
 Period length:        1.00000 Time step count:         1 Time step multiplier:        1.00000
 Period length:        1.00000 Time step count:         1 Time step multiplier:        1.00000
 Period length:        1.00000 Time step count:         1 Time step multiplier:        1.00000
 Period length:        1.00000 Time step count:         1 Time step multiplier:        1.00000
 Period length:        1.00000 Time step count:         1 Time step multiplier:        1.00000
 Period length:        1.00000 Time step count:         1 Time step multiplier:        1.00000
 Period length:        1.00000 Time step count:         1 Time step multiplier:        1.00000
 Period length:        1.00000 Time step count:         1 Time step multiplier:        1.00000
 Period length:        1.00000 Time step count:         1 Time step multiplier:        1.00000
 Period length:        1.00000 Time step count:         1 Time step multiplier:        1.00000
 Period length:        1.00000 Time step count:         1 Time step multiplier:        1.00000
 Period length:        1.00000 Time step count:         1 Time step multiplier:        1.00000
 Period length:        1.00000 Time step count:         1 Time step multiplier:        1.00000
 Period length:        1.00000 Time step count:         1 Time step multiplier:        1.00000
 Period length:        1.00000 Time step count:         1 Time step multiplier:        1.00000
 Period length:        1.00000 Time step count:         1 Time step multiplier:        1.00000
 Period length:        1.00000 Time step count:         1 Time step multiplier:        1.00000
 Period length:        1.00000 Time step count:         1 Time step multiplier:        1.00000
 Period length:        1.00000 Time step count:         1 Time step multiplier:        1.00000
 Period length:        1.00000 Time step count:         1 Time step multiplier:        1.00000
 Period length:        1.00000 Time step count:         1 Time step multiplier:        1.00000
 Period length:        1.00000 Time step count:         1 Time step multiplier:        1.00000
 Period length:        1.00000 Time step count:         1 Time step multiplier:        1.00000
 Period length:        1.00000 Time step count:         1 Time step multiplier:        1.00000
 Period length:        1.00000 Time step count:         1 Time step multiplier:        1.00000
 Period length:        1.00000 Time step count:         1 Time step multiplier:        1.00000
 Period length:        1.00000 Time step count:         1 Time step multiplier:        1.00000
 Period length:        1.00000 Time step count:         1 Time step multiplier:        1.00000
 Period length:        1.00000 Time step count:         1 Time step multiplier:        1.00000
 Period length:        1.00000 Time step count:         1 Time step multiplier:        1.00000
 Period length:        1.00000 Time step count:         1 Time step multiplier:        1.00000
 Period length:        1.00000 Time step count:         1 Time step multiplier:        1.00000
 Period length:        1.00000 Time step count:         1 Time step multiplier:        1.00000
 Period length:        1.00000 Time step count:         1 Time step multiplier:        1.00000
 Period length:        1.00000 Time step count:         1 Time step multiplier:        1.00000
 Period length:        1.00000 Time step count:         1 Time step multiplier:        1.00000
 Period length:        1.00000 Time step count:         1 Time step multiplier:        1.00000
 Period length:        1.00000 Time step count:         1 Time step multiplier:        1.00000
 Period length:        1.00000 Time step count:         1 Time step multiplier:        1.00000
 Period length:        1.00000 Time step count:         1 Time step multiplier:        1.00000
 Period length:        1.00000 Time step count:         1 Time step multiplier:        1.00000
 Period length:        1.00000 Time step count:         1 Time step multiplier:        1.00000
 Period length:        1.00000 Time step count:         1 Time step multiplier:        1.00000
 Period length:        1.00000 Time step count:         1 Time step multiplier:        1.00000
 Period length:        1.00000 Time step count:         1 Time step multiplier:        1.00000
 Period length:        1.00000 Time step count:         1 Time step multiplier:        1.00000
 Period length:        1.00000 Time step count:         1 Time step multiplier:        1.00000
 Period length:        1.00000 Time step count:         1 Time step multiplier:        1.00000
 Period length:        1.00000 Time step count:         1 Time step multiplier:        1.00000
 Period length:        1.00000 Time step count:         1 Time step multiplier:        1.00000
 Period length:        1.00000 Time step count:         1 Time step multiplier:        1.00000
 Period length:        1.00000 Time step count:         1 Time step multiplier:        1.00000
 Period length:        1.00000 Time step count:         1 Time step multiplier:        1.00000
 Period length:        1.00000 Time step count:         1 Time step multiplier:        1.00000
 Period length:        1.00000 Time step count:         1 Time step multiplier:        1.00000
 Period length:        1.00000 Time step count:         1 Time step multiplier:        1.00000
 Period length:        1.00000 Time step count:         1 Time step multiplier:        1.00000
 Period length:        1.00000 Time step count:         1 Time step multiplier:        1.00000
 Period length:        1.00000 Time step count:         1 Time step multiplier:        1.00000
 Period length:        1.00000 Time step count:         1 Time step multiplier:        1.00000
 Period length:        1.00000 Time step count:         1 Time step multiplier:        1.00000
 Period length:        1.00000 Time step count:         1 Time step multiplier:        1.00000
 Period length:        1.00000 Time step count:         1 Time step multiplier:        1.00000
 Period length:        1.00000 Time step count:         1 Time step multiplier:        1.00000
 Period length:        1.00000 Time step count:         1 Time step multiplier:        1.00000
 Period length:        1.00000 Time step count:         1 Time step multiplier:        1.00000
 Period length:        1.00000 Time step count:         1 Time step multiplier:        1.00000
 Period length:        1.00000 Time step count:         1 Time step multiplier:        1.00000
 Period length:        1.00000 Time step count:         1 Time step multiplier:        1.00000
 Period length:        1.00000 Time step count:         1 Time step multiplier:        1.00000
 Period length:        1.00000 Time step count:         1 Time step multiplier:        1.00000
 Period length:        1.00000 Time step count:         1 Time step multiplier:        1.00000
 Period length:        1.00000 Time step count:         1 Time step multiplier:        1.00000
 Period length:        1.00000 Time step count:         1 Time step multiplier:        1.00000
 Period length:        1.00000 Time step count:         1 Time step multiplier:        1.00000
 Period length:        1.00000 Time step count:         1 Time step multiplier:        1.00000
 Period length:        1.00000 Time step count:         1 Time step multiplier:        1.00000
 Period length:        1.00000 Time step count:         1 Time step multiplier:        1.00000
 Period length:        1.00000 Time step count:         1 Time step multiplier:        1.00000
 Period length:        1.00000 Time step count:         1 Time step multiplier:        1.00000
 Period length:        1.00000 Time step count:         1 Time step multiplier:        1.00000
 Period length:        1.00000 Time step count:         1 Time step multiplier:        1.00000
 Period length:        1.00000 Time step count:         1 Time step multiplier:        1.00000
 Period length:        1.00000 Time step count:         1 Time step multiplier:        1.00000
 Period length:        1.00000 Time step count:         1 Time step multiplier:        1.00000
 Period length:        1.00000 Time step count:         1 Time step multiplier:        1.00000
 Period length:        1.00000 Time step count:         1 Time step multiplier:        1.00000
 Period length:        1.00000 Time step count:         1 Time step multiplier:        1.00000
 Period length:        1.00000 Time step count:         1 Time step multiplier:        1.00000
 Period length:        1.00000 Time step count:         1 Time step multiplier:        1.00000
 Period length:        1.00000 Time step count:         1 Time step multiplier:        1.00000
 Period length:        1.00000 Time step count:         1 Time step multiplier:        1.00000
 Period length:        1.00000 Time step count:         1 Time step multiplier:        1.00000
 Period length:        1.00000 Time step count:         1 Time step multiplier:        1.00000
 Period length:        1.00000 Time step count:         1 Time step multiplier:        1.00000
 Period length:        1.00000 Time step count:         1 Time step multiplier:        1.00000
 Period length:        1.00000 Time step count:         1 Time step multiplier:        1.00000
 Period length:        1.00000 Time step count:         1 Time step multiplier:        1.00000
 Period length:        1.00000 Time step count:         1 Time step multiplier:        1.00000
 Period length:        1.00000 Time step count:         1 Time step multiplier:        1.00000
 Period length:        1.00000 Time step count:         1 Time step multiplier:        1.00000
 Period length:        1.00000 Time step count:         1 Time step multiplier:        1.00000
 Period length:        1.00000 Time step count:         1 Time step multiplier:        1.00000
 Period length:        1.00000 Time step count:         1 Time step multiplier:        1.00000
 Period length:        1.00000 Time step count:         1 Time step multiplier:        1.00000
 Period length:        1.00000 Time step count:         1 Time step multiplier:        1.00000
 Period length:        1.00000 Time step count:         1 Time step multiplier:        1.00000
 Period length:        1.00000 Time step count:         1 Time step multiplier:        1.00000
 Period length:        1.00000 Time step count:         1 Time step multiplier:        1.00000
 Period length:        1.00000 Time step count:         1 Time step multiplier:        1.00000
 Period length:        1.00000 Time step count:         1 Time step multiplier:        1.00000
 Period length:        1.00000 Time step count:         1 Time step multiplier:        1.00000
 Period length:        1.00000 Time step count:         1 Time step multiplier:        1.00000
 Period length:        1.00000 Time step count:         1 Time step multiplier:        1.00000
 Period length:        1.00000 Time step count:         1 Time step multiplier:        1.00000
 Period length:        1.00000 Time step count:         1 Time step multiplier:        1.00000
 Period length:        1.00000 Time step count:         1 Time step multiplier:        1.00000
 Period length:        1.00000 Time step count:         1 Time step multiplier:        1.00000
 Period length:        1.00000 Time step count:         1 Time step multiplier:        1.00000
 Period length:        1.00000 Time step count:         1 Time step multiplier:        1.00000
 Period length:        1.00000 Time step count:         1 Time step multiplier:        1.00000