# File generated by Flopy version 3.3.6 on 05/06/2022 at 17:25:10.
BEGIN Options
  LIST  freyberg6.lst
  NEWTON
END Options

BEGIN Packages
  dis6  freyberg6.dis
  ic6  freyberg6.ic
  npf6  freyberg6.npf
  sto6  freyberg6.sto
  oc6  freyberg6.oc
  rch6  freyberg6.rch
  wel6  freyberg6.wel
  ghb6  freyberg6.ghb
  sfr6  freyberg6.sfr  sfr_1
  obs6  freyberg6.obs  head_obs
END Packages

