# File generated by Flopy version 3.3.6 on 05/06/2022 at 17:25:32.
BEGIN options
END options

BEGIN continuous  FILEOUT  sfr.csv
  headwater  sfr  headwater
  tailwater  sfr  tailwater
  gage-1  inflow  120.0
END continuous  FILEOUT  sfr.csv

