pcf
* control data
             restart          estimation
         5       725         2         0         2
         4         2              single               point
   2.000000E+01  -3.000000E+00   3.000000E-01   1.000000E-02        -7
   1.000000E+01   1.000000E+01   1.000000E-03
   1.000000E-01
         0   1.000000E-02         3         3   1.000000E-02         3
         0         0         0
* singular value decomposition
         1
  10000000    1.000000E-06
1
* parameter groups
hk                     relative              1.0000000000E-02      0.0 switch                2.0000000000E+00      parabolic             1.0000000000E-05      5.0000000000E-01      smaller              
rch                    relative              1.0000000000E-02      0.0 switch                2.0000000000E+00      parabolic             1.0000000000E-05      5.0000000000E-01      smaller              
* parameter data
hk1                   log                   factor                5.0000000000E+00      5.0000000000E-02      5.0000000000E+01      hk                    1.0000000000E+00      0.0000000000E+00      
hk2                   log                   factor                5.0000000000E+00      5.0000000000E-02      5.0000000000E+01      hk                    1.0000000000E+00      0.0000000000E+00      
hk3                   log                   factor                5.0000000000E+00      5.0000000000E-02      5.0000000000E+01      hk                    1.0000000000E+00      0.0000000000E+00      
rch0                  fixed                 factor                1.0000000000E+00      5.0000000000E-01      2.0000000000E+00      rch                   1.0000000000E+00      0.0000000000E+00      
rch1                  fixed                 factor                1.0000000000E+00      5.0000000000E-01      2.0000000000E+00      rch                   1.0000000000E+00      0.0000000000E+00      
* observation groups
flux                 
hds                  
* observation data
gage-1:3652.5         2.4131960251E+03      0.0000000000E+00      flux                 
gage-1:3683.5         3.4412450139E+03      0.0000000000E+00      flux                 
gage-1:3712.5         3.4198874682E+03      0.0000000000E+00      flux                 
gage-1:3743.5         3.3589710768E+03      0.0000000000E+00      flux                 
gage-1:3773.5         3.1408881665E+03      0.0000000000E+00      flux                 
gage-1:3804.5         2.5870531233E+03      0.0000000000E+00      flux                 
gage-1:3834.5         1.7837306339E+03      0.0000000000E+00      flux                 
gage-1:3865.5         1.1575672110E+03      0.0000000000E+00      flux                 
gage-1:3896.5         8.7475987206E+02      0.0000000000E+00      flux                 
gage-1:3926.5         7.1951485432E+02      0.0000000000E+00      flux                 
gage-1:3957.5         1.0842439409E+03      0.0000000000E+00      flux                 
gage-1:3987.5         1.5832328748E+03      0.0000000000E+00      flux                 
gage-1:4018.5         1.9500161655E+03      0.0000000000E+00      flux                 
gage-1:4049.5         2.1535580824E+03      0.0000000000E+00      flux                 
gage-1:4077.5         2.4570975746E+03      0.0000000000E+00      flux                 
gage-1:4108.5         2.6339522154E+03      0.0000000000E+00      flux                 
gage-1:4138.5         2.4763902040E+03      0.0000000000E+00      flux                 
gage-1:4169.5         1.8044127122E+03      0.0000000000E+00      flux                 
gage-1:4199.5         1.5211753014E+03      0.0000000000E+00      flux                 
gage-1:4230.5         1.1821235930E+03      0.0000000000E+00      flux                 
gage-1:4261.5         9.3506002615E+02      0.0000000000E+00      flux                 
gage-1:4291.5         7.5957259943E+02      0.0000000000E+00      flux                 
gage-1:4322.5         1.4254851440E+03      0.0000000000E+00      flux                 
gage-1:4352.5         1.9800464702E+03      0.0000000000E+00      flux                 
gage-1:4383.5         2.2752826479E+03      0.0000000000E+00      flux                 
headwater:3652.5      -1.0373714002E+03     0.0000000000E+00      flux                 
headwater:3683.5      -1.3953293474E+03     0.0000000000E+00      flux                 
headwater:3712.5      -1.2696903435E+03     0.0000000000E+00      flux                 
headwater:3743.5      -1.5348036567E+03     0.0000000000E+00      flux                 
headwater:3773.5      -1.3060902911E+03     0.0000000000E+00      flux                 
headwater:3804.5      -1.0624349079E+03     0.0000000000E+00      flux                 
headwater:3834.5      -5.7606896847E+02     0.0000000000E+00      flux                 
headwater:3865.5      -2.6060680232E+02     0.0000000000E+00      flux                 
headwater:3896.5      -7.4578010993E+01     0.0000000000E+00      flux                 
headwater:3926.5      -5.8994036670E+01     0.0000000000E+00      flux                 
headwater:3957.5      -3.1234084617E+02     0.0000000000E+00      flux                 
headwater:3987.5      -4.8076350459E+02     0.0000000000E+00      flux                 
headwater:4018.5      -6.3353960534E+02     0.0000000000E+00      flux                 
headwater:4049.5      -8.4602302700E+02     0.0000000000E+00      flux                 
headwater:4077.5      -1.0329870383E+03     0.0000000000E+00      flux                 
headwater:4108.5      -1.0426003778E+03     0.0000000000E+00      flux                 
headwater:4138.5      -9.5651612087E+02     0.0000000000E+00      flux                 
headwater:4169.5      -6.2904819466E+02     0.0000000000E+00      flux                 
headwater:4199.5      -4.3466082895E+02     0.0000000000E+00      flux                 
headwater:4230.5      -3.4711737718E+02     0.0000000000E+00      flux                 
headwater:4261.5      -2.3590152130E+02     0.0000000000E+00      flux                 
headwater:4291.5      -9.9132691883E+01     0.0000000000E+00      flux                 
headwater:4322.5      -7.2097283484E+02     0.0000000000E+00      flux                 
headwater:4352.5      -8.8383779392E+02     0.0000000000E+00      flux                 
headwater:4383.5      -1.0898924368E+03     0.0000000000E+00      flux                 
tailwater:3652.5      -1.3728960300E+03     0.0000000000E+00      flux                 
tailwater:3683.5      -1.9845662463E+03     0.0000000000E+00      flux                 
tailwater:3712.5      -2.0858061090E+03     0.0000000000E+00      flux                 
tailwater:3743.5      -1.7318487150E+03     0.0000000000E+00      flux                 
tailwater:3773.5      -1.8180973926E+03     0.0000000000E+00      flux                 
tailwater:3804.5      -1.5306752627E+03     0.0000000000E+00      flux                 
tailwater:3834.5      -1.2319355178E+03     0.0000000000E+00      flux                 
tailwater:3865.5      -9.4619942590E+02     0.0000000000E+00      flux                 
tailwater:3896.5      -8.4573400309E+02     0.0000000000E+00      flux                 
tailwater:3926.5      -6.8677452390E+02     0.0000000000E+00      flux                 
tailwater:3957.5      -7.7598205941E+02     0.0000000000E+00      flux                 
tailwater:3987.5      -1.0929506541E+03     0.0000000000E+00      flux                 
tailwater:4018.5      -1.2722223175E+03     0.0000000000E+00      flux                 
tailwater:4049.5      -1.2111523101E+03     0.0000000000E+00      flux                 
tailwater:4077.5      -1.3289471667E+03     0.0000000000E+00      flux                 
tailwater:4108.5      -1.5096370494E+03     0.0000000000E+00      flux                 
tailwater:4138.5      -1.4999127299E+03     0.0000000000E+00      flux                 
tailwater:4169.5      -1.1915626809E+03     0.0000000000E+00      flux                 
tailwater:4199.5      -1.1354530287E+03     0.0000000000E+00      flux                 
tailwater:4230.5      -8.9370853814E+02     0.0000000000E+00      flux                 
tailwater:4261.5      -7.4146774967E+02     0.0000000000E+00      flux                 
tailwater:4291.5      -6.7993610001E+02     0.0000000000E+00      flux                 
tailwater:4322.5      -6.7081094778E+02     0.0000000000E+00      flux                 
tailwater:4352.5      -1.0461891893E+03     0.0000000000E+00      flux                 
tailwater:4383.5      -1.1041716922E+03     0.0000000000E+00      flux                 
trgw-0-13-10:3652.5   3.4231399440E+01      0.0000000000E+00      hds                  
trgw-0-13-10:3683.5   3.4371334350E+01      1.0000000000E+01      hds                  
trgw-0-13-10:3712.5   3.4264688790E+01      1.0000000000E+01      hds                  
trgw-0-13-10:3743.5   3.4302843880E+01      1.0000000000E+01      hds                  
trgw-0-13-10:3773.5   3.4259541230E+01      1.0000000000E+01      hds                  
trgw-0-13-10:3804.5   3.4225545820E+01      1.0000000000E+01      hds                  
trgw-0-13-10:3834.5   3.4079126430E+01      1.0000000000E+01      hds                  
trgw-0-13-10:3865.5   3.3970704770E+01      1.0000000000E+01      hds                  
trgw-0-13-10:3896.5   3.3904551740E+01      1.0000000000E+01      hds                  
trgw-0-13-10:3926.5   3.3894881090E+01      1.0000000000E+01      hds                  
trgw-0-13-10:3957.5   3.4001629910E+01      1.0000000000E+01      hds                  
trgw-0-13-10:3987.5   3.4034977330E+01      1.0000000000E+01      hds                  
trgw-0-13-10:4018.5   3.4070785090E+01      1.0000000000E+01      hds                  
trgw-0-13-10:4049.5   3.4138907500E+01      0.0000000000E+00      hds                  
trgw-0-13-10:4077.5   3.4219217840E+01      0.0000000000E+00      hds                  
trgw-0-13-10:4108.5   3.4225886040E+01      0.0000000000E+00      hds                  
trgw-0-13-10:4138.5   3.4202345340E+01      0.0000000000E+00      hds                  
trgw-0-13-10:4169.5   3.4082978950E+01      0.0000000000E+00      hds                  
trgw-0-13-10:4199.5   3.4020923170E+01      0.0000000000E+00      hds                  
trgw-0-13-10:4230.5   3.3980454980E+01      0.0000000000E+00      hds                  
trgw-0-13-10:4261.5   3.3940304950E+01      0.0000000000E+00      hds                  
trgw-0-13-10:4291.5   3.3898224410E+01      0.0000000000E+00      hds                  
trgw-0-13-10:4322.5   3.4081240910E+01      0.0000000000E+00      hds                  
trgw-0-13-10:4352.5   3.4127802510E+01      0.0000000000E+00      hds                  
trgw-0-13-10:4383.5   3.4173848150E+01      0.0000000000E+00      hds                  
trgw-0-15-16:3652.5   3.4054486220E+01      0.0000000000E+00      hds                  
trgw-0-15-16:3683.5   3.4170707050E+01      1.0000000000E+01      hds                  
trgw-0-15-16:3712.5   3.4152730420E+01      1.0000000000E+01      hds                  
trgw-0-15-16:3743.5   3.4172735830E+01      1.0000000000E+01      hds                  
trgw-0-15-16:3773.5   3.4135370990E+01      1.0000000000E+01      hds                  
trgw-0-15-16:3804.5   3.4074086410E+01      1.0000000000E+01      hds                  
trgw-0-15-16:3834.5   3.3978989850E+01      1.0000000000E+01      hds                  
trgw-0-15-16:3865.5   3.3901181450E+01      1.0000000000E+01      hds                  
trgw-0-15-16:3896.5   3.3839915220E+01      1.0000000000E+01      hds                  
trgw-0-15-16:3926.5   3.3839964640E+01      1.0000000000E+01      hds                  
trgw-0-15-16:3957.5   3.3904450650E+01      1.0000000000E+01      hds                  
trgw-0-15-16:3987.5   3.3948615990E+01      1.0000000000E+01      hds                  
trgw-0-15-16:4018.5   3.3997030420E+01      1.0000000000E+01      hds                  
trgw-0-15-16:4049.5   3.4042469810E+01      0.0000000000E+00      hds                  
trgw-0-15-16:4077.5   3.4071732430E+01      0.0000000000E+00      hds                  
trgw-0-15-16:4108.5   3.4084401450E+01      0.0000000000E+00      hds                  
trgw-0-15-16:4138.5   3.4065571230E+01      0.0000000000E+00      hds                  
trgw-0-15-16:4169.5   3.3981977910E+01      0.0000000000E+00      hds                  
trgw-0-15-16:4199.5   3.3926619310E+01      0.0000000000E+00      hds                  
trgw-0-15-16:4230.5   3.3903166860E+01      0.0000000000E+00      hds                  
trgw-0-15-16:4261.5   3.3866978380E+01      0.0000000000E+00      hds                  
trgw-0-15-16:4291.5   3.3836562680E+01      0.0000000000E+00      hds                  
trgw-0-15-16:4322.5   3.3948364100E+01      0.0000000000E+00      hds                  
trgw-0-15-16:4352.5   3.4015810020E+01      0.0000000000E+00      hds                  
trgw-0-15-16:4383.5   3.4028835690E+01      0.0000000000E+00      hds                  
trgw-0-2-15:3652.5    3.4105742730E+01      0.0000000000E+00      hds                  
trgw-0-2-15:3683.5    3.4108550890E+01      1.0000000000E+01      hds                  
trgw-0-2-15:3712.5    3.4096835020E+01      1.0000000000E+01      hds                  
trgw-0-2-15:3743.5    3.4167637230E+01      1.0000000000E+01      hds                  
trgw-0-2-15:3773.5    3.4109773210E+01      1.0000000000E+01      hds                  
trgw-0-2-15:3804.5    3.4101379240E+01      1.0000000000E+01      hds                  
trgw-0-2-15:3834.5    3.4057676110E+01      1.0000000000E+01      hds                  
trgw-0-2-15:3865.5    3.4028817930E+01      1.0000000000E+01      hds                  
trgw-0-2-15:3896.5    3.4009463810E+01      1.0000000000E+01      hds                  
trgw-0-2-15:3926.5    3.4010443490E+01      1.0000000000E+01      hds                  
trgw-0-2-15:3957.5    3.4035863330E+01      1.0000000000E+01      hds                  
trgw-0-2-15:3987.5    3.4038665520E+01      1.0000000000E+01      hds                  
trgw-0-2-15:4018.5    3.4063464950E+01      1.0000000000E+01      hds                  
trgw-0-2-15:4049.5    3.4081056590E+01      0.0000000000E+00      hds                  
trgw-0-2-15:4077.5    3.4106019620E+01      0.0000000000E+00      hds                  
trgw-0-2-15:4108.5    3.4089390000E+01      0.0000000000E+00      hds                  
trgw-0-2-15:4138.5    3.4081802730E+01      0.0000000000E+00      hds                  
trgw-0-2-15:4169.5    3.4057637690E+01      0.0000000000E+00      hds                  
trgw-0-2-15:4199.5    3.4033097780E+01      0.0000000000E+00      hds                  
trgw-0-2-15:4230.5    3.4031619640E+01      0.0000000000E+00      hds                  
trgw-0-2-15:4261.5    3.4036612220E+01      0.0000000000E+00      hds                  
trgw-0-2-15:4291.5    3.4013369100E+01      0.0000000000E+00      hds                  
trgw-0-2-15:4322.5    3.4099000750E+01      0.0000000000E+00      hds                  
trgw-0-2-15:4352.5    3.4091023230E+01      0.0000000000E+00      hds                  
trgw-0-2-15:4383.5    3.4153498290E+01      0.0000000000E+00      hds                  
trgw-0-2-9:3652.5     3.4541667630E+01      0.0000000000E+00      hds                  
trgw-0-2-9:3683.5     3.4521778220E+01      1.0000000000E+01      hds                  
trgw-0-2-9:3712.5     3.4489560810E+01      1.0000000000E+01      hds                  
trgw-0-2-9:3743.5     3.4646997330E+01      1.0000000000E+01      hds                  
trgw-0-2-9:3773.5     3.4520730830E+01      1.0000000000E+01      hds                  
trgw-0-2-9:3804.5     3.4502293140E+01      1.0000000000E+01      hds                  
trgw-0-2-9:3834.5     3.4385553000E+01      1.0000000000E+01      hds                  
trgw-0-2-9:3865.5     3.4288496610E+01      1.0000000000E+01      hds                  
trgw-0-2-9:3896.5     3.4217269430E+01      1.0000000000E+01      hds                  
trgw-0-2-9:3926.5     3.4186336380E+01      1.0000000000E+01      hds                  
trgw-0-2-9:3957.5     3.4303361680E+01      1.0000000000E+01      hds                  
trgw-0-2-9:3987.5     3.4256548600E+01      1.0000000000E+01      hds                  
trgw-0-2-9:4018.5     3.4300876940E+01      1.0000000000E+01      hds                  
trgw-0-2-9:4049.5     3.4368711760E+01      0.0000000000E+00      hds                  
trgw-0-2-9:4077.5     3.4550062520E+01      0.0000000000E+00      hds                  
trgw-0-2-9:4108.5     3.4481276020E+01      0.0000000000E+00      hds                  
trgw-0-2-9:4138.5     3.4424975900E+01      0.0000000000E+00      hds                  
trgw-0-2-9:4169.5     3.4344742800E+01      0.0000000000E+00      hds                  
trgw-0-2-9:4199.5     3.4276863180E+01      0.0000000000E+00      hds                  
trgw-0-2-9:4230.5     3.4255643430E+01      0.0000000000E+00      hds                  
trgw-0-2-9:4261.5     3.4241769880E+01      0.0000000000E+00      hds                  
trgw-0-2-9:4291.5     3.4189443300E+01      0.0000000000E+00      hds                  
trgw-0-2-9:4322.5     3.4371689760E+01      0.0000000000E+00      hds                  
trgw-0-2-9:4352.5     3.4439704210E+01      0.0000000000E+00      hds                  
trgw-0-2-9:4383.5     3.4582186080E+01      0.0000000000E+00      hds                  
trgw-0-21-10:3652.5   3.4205104410E+01      0.0000000000E+00      hds                  
trgw-0-21-10:3683.5   3.4410300980E+01      1.0000000000E+01      hds                  
trgw-0-21-10:3712.5   3.4373425910E+01      1.0000000000E+01      hds                  
trgw-0-21-10:3743.5   3.4365647310E+01      1.0000000000E+01      hds                  
trgw-0-21-10:3773.5   3.4371398280E+01      1.0000000000E+01      hds                  
trgw-0-21-10:3804.5   3.4252754320E+01      1.0000000000E+01      hds                  
trgw-0-21-10:3834.5   3.4129073940E+01      1.0000000000E+01      hds                  
trgw-0-21-10:3865.5   3.4006531080E+01      1.0000000000E+01      hds                  
trgw-0-21-10:3896.5   3.3910500790E+01      1.0000000000E+01      hds                  
trgw-0-21-10:3926.5   3.3881479300E+01      1.0000000000E+01      hds                  
trgw-0-21-10:3957.5   3.4022380690E+01      1.0000000000E+01      hds                  
trgw-0-21-10:3987.5   3.4039624950E+01      1.0000000000E+01      hds                  
trgw-0-21-10:4018.5   3.4084691740E+01      1.0000000000E+01      hds                  
trgw-0-21-10:4049.5   3.4121408270E+01      0.0000000000E+00      hds                  
trgw-0-21-10:4077.5   3.4171673850E+01      0.0000000000E+00      hds                  
trgw-0-21-10:4108.5   3.4244067680E+01      0.0000000000E+00      hds                  
trgw-0-21-10:4138.5   3.4205321530E+01      0.0000000000E+00      hds                  
trgw-0-21-10:4169.5   3.4097400290E+01      0.0000000000E+00      hds                  
trgw-0-21-10:4199.5   3.4021757260E+01      0.0000000000E+00      hds                  
trgw-0-21-10:4230.5   3.3963313170E+01      0.0000000000E+00      hds                  
trgw-0-21-10:4261.5   3.3890746650E+01      0.0000000000E+00      hds                  
trgw-0-21-10:4291.5   3.3845464390E+01      0.0000000000E+00      hds                  
trgw-0-21-10:4322.5   3.3927414990E+01      0.0000000000E+00      hds                  
trgw-0-21-10:4352.5   3.4104986950E+01      0.0000000000E+00      hds                  
trgw-0-21-10:4383.5   3.4090681290E+01      0.0000000000E+00      hds                  
trgw-0-22-15:3652.5   3.3908871490E+01      0.0000000000E+00      hds                  
trgw-0-22-15:3683.5   3.4016345080E+01      1.0000000000E+01      hds                  
trgw-0-22-15:3712.5   3.4025545420E+01      1.0000000000E+01      hds                  
trgw-0-22-15:3743.5   3.3990802050E+01      1.0000000000E+01      hds                  
trgw-0-22-15:3773.5   3.3972239350E+01      1.0000000000E+01      hds                  
trgw-0-22-15:3804.5   3.3923771840E+01      1.0000000000E+01      hds                  
trgw-0-22-15:3834.5   3.3869845910E+01      1.0000000000E+01      hds                  
trgw-0-22-15:3865.5   3.3808873270E+01      1.0000000000E+01      hds                  
trgw-0-22-15:3896.5   3.3765460610E+01      1.0000000000E+01      hds                  
trgw-0-22-15:3926.5   3.3770969370E+01      1.0000000000E+01      hds                  
trgw-0-22-15:3957.5   3.3814942040E+01      1.0000000000E+01      hds                  
trgw-0-22-15:3987.5   3.3854632750E+01      1.0000000000E+01      hds                  
trgw-0-22-15:4018.5   3.3874867950E+01      1.0000000000E+01      hds                  
trgw-0-22-15:4049.5   3.3900491770E+01      0.0000000000E+00      hds                  
trgw-0-22-15:4077.5   3.3924155610E+01      0.0000000000E+00      hds                  
trgw-0-22-15:4108.5   3.3931736870E+01      0.0000000000E+00      hds                  
trgw-0-22-15:4138.5   3.3929707520E+01      0.0000000000E+00      hds                  
trgw-0-22-15:4169.5   3.3869849050E+01      0.0000000000E+00      hds                  
trgw-0-22-15:4199.5   3.3829757950E+01      0.0000000000E+00      hds                  
trgw-0-22-15:4230.5   3.3811660060E+01      0.0000000000E+00      hds                  
trgw-0-22-15:4261.5   3.3776600290E+01      0.0000000000E+00      hds                  
trgw-0-22-15:4291.5   3.3757104850E+01      0.0000000000E+00      hds                  
trgw-0-22-15:4322.5   3.3808486710E+01      0.0000000000E+00      hds                  
trgw-0-22-15:4352.5   3.3887584430E+01      0.0000000000E+00      hds                  
trgw-0-22-15:4383.5   3.3884966480E+01      0.0000000000E+00      hds                  
trgw-0-24-4:3652.5    3.4631244660E+01      0.0000000000E+00      hds                  
trgw-0-24-4:3683.5    3.4905790680E+01      1.0000000000E+01      hds                  
trgw-0-24-4:3712.5    3.4967207130E+01      1.0000000000E+01      hds                  
trgw-0-24-4:3743.5    3.4933333580E+01      1.0000000000E+01      hds                  
trgw-0-24-4:3773.5    3.4927144040E+01      1.0000000000E+01      hds                  
trgw-0-24-4:3804.5    3.4847332550E+01      1.0000000000E+01      hds                  
trgw-0-24-4:3834.5    3.4733146910E+01      1.0000000000E+01      hds                  
trgw-0-24-4:3865.5    3.4575288910E+01      1.0000000000E+01      hds                  
trgw-0-24-4:3896.5    3.4392266090E+01      1.0000000000E+01      hds                  
trgw-0-24-4:3926.5    3.4277482650E+01      1.0000000000E+01      hds                  
trgw-0-24-4:3957.5    3.4392789750E+01      1.0000000000E+01      hds                  
trgw-0-24-4:3987.5    3.4388420410E+01      1.0000000000E+01      hds                  
trgw-0-24-4:4018.5    3.4447226810E+01      1.0000000000E+01      hds                  
trgw-0-24-4:4049.5    3.4508608100E+01      0.0000000000E+00      hds                  
trgw-0-24-4:4077.5    3.4562996650E+01      0.0000000000E+00      hds                  
trgw-0-24-4:4108.5    3.4603386020E+01      0.0000000000E+00      hds                  
trgw-0-24-4:4138.5    3.4672921390E+01      0.0000000000E+00      hds                  
trgw-0-24-4:4169.5    3.4566415600E+01      0.0000000000E+00      hds                  
trgw-0-24-4:4199.5    3.4469021500E+01      0.0000000000E+00      hds                  
trgw-0-24-4:4230.5    3.4392805520E+01      0.0000000000E+00      hds                  
trgw-0-24-4:4261.5    3.4268688290E+01      0.0000000000E+00      hds                  
trgw-0-24-4:4291.5    3.4208616550E+01      0.0000000000E+00      hds                  
trgw-0-24-4:4322.5    3.4257756340E+01      0.0000000000E+00      hds                  
trgw-0-24-4:4352.5    3.4413599230E+01      0.0000000000E+00      hds                  
trgw-0-24-4:4383.5    3.4436168890E+01      0.0000000000E+00      hds                  
trgw-0-26-6:3652.5    3.4450715620E+01      0.0000000000E+00      hds                  
trgw-0-26-6:3683.5    3.4712476690E+01      1.0000000000E+01      hds                  
trgw-0-26-6:3712.5    3.4755832280E+01      1.0000000000E+01      hds                  
trgw-0-26-6:3743.5    3.4747962580E+01      1.0000000000E+01      hds                  
trgw-0-26-6:3773.5    3.4737606250E+01      1.0000000000E+01      hds                  
trgw-0-26-6:3804.5    3.4616959440E+01      1.0000000000E+01      hds                  
trgw-0-26-6:3834.5    3.4488621070E+01      1.0000000000E+01      hds                  
trgw-0-26-6:3865.5    3.4318413030E+01      1.0000000000E+01      hds                  
trgw-0-26-6:3896.5    3.4171884680E+01      1.0000000000E+01      hds                  
trgw-0-26-6:3926.5    3.4074243940E+01      1.0000000000E+01      hds                  
trgw-0-26-6:3957.5    3.4230623950E+01      1.0000000000E+01      hds                  
trgw-0-26-6:3987.5    3.4242738640E+01      1.0000000000E+01      hds                  
trgw-0-26-6:4018.5    3.4348108560E+01      1.0000000000E+01      hds                  
trgw-0-26-6:4049.5    3.4390508920E+01      0.0000000000E+00      hds                  
trgw-0-26-6:4077.5    3.4407880930E+01      0.0000000000E+00      hds                  
trgw-0-26-6:4108.5    3.4428603670E+01      0.0000000000E+00      hds                  
trgw-0-26-6:4138.5    3.4481947770E+01      0.0000000000E+00      hds                  
trgw-0-26-6:4169.5    3.4387791140E+01      0.0000000000E+00      hds                  
trgw-0-26-6:4199.5    3.4275872420E+01      0.0000000000E+00      hds                  
trgw-0-26-6:4230.5    3.4189775510E+01      0.0000000000E+00      hds                  
trgw-0-26-6:4261.5    3.4061660720E+01      0.0000000000E+00      hds                  
trgw-0-26-6:4291.5    3.4011633010E+01      0.0000000000E+00      hds                  
trgw-0-26-6:4322.5    3.4088136080E+01      0.0000000000E+00      hds                  
trgw-0-26-6:4352.5    3.4285713210E+01      0.0000000000E+00      hds                  
trgw-0-26-6:4383.5    3.4281726820E+01      0.0000000000E+00      hds                  
trgw-0-29-15:3652.5   3.3791732450E+01      0.0000000000E+00      hds                  
trgw-0-29-15:3683.5   3.3860403440E+01      1.0000000000E+01      hds                  
trgw-0-29-15:3712.5   3.3856563730E+01      1.0000000000E+01      hds                  
trgw-0-29-15:3743.5   3.3840214230E+01      1.0000000000E+01      hds                  
trgw-0-29-15:3773.5   3.3824884720E+01      1.0000000000E+01      hds                  
trgw-0-29-15:3804.5   3.3795387020E+01      1.0000000000E+01      hds                  
trgw-0-29-15:3834.5   3.3762539760E+01      1.0000000000E+01      hds                  
trgw-0-29-15:3865.5   3.3724666060E+01      1.0000000000E+01      hds                  
trgw-0-29-15:3896.5   3.3701444950E+01      1.0000000000E+01      hds                  
trgw-0-29-15:3926.5   3.3693059790E+01      1.0000000000E+01      hds                  
trgw-0-29-15:3957.5   3.3720099410E+01      1.0000000000E+01      hds                  
trgw-0-29-15:3987.5   3.3749979420E+01      1.0000000000E+01      hds                  
trgw-0-29-15:4018.5   3.3778906070E+01      1.0000000000E+01      hds                  
trgw-0-29-15:4049.5   3.3780963220E+01      0.0000000000E+00      hds                  
trgw-0-29-15:4077.5   3.3800172540E+01      0.0000000000E+00      hds                  
trgw-0-29-15:4108.5   3.3805275570E+01      0.0000000000E+00      hds                  
trgw-0-29-15:4138.5   3.3798129620E+01      0.0000000000E+00      hds                  
trgw-0-29-15:4169.5   3.3761315840E+01      0.0000000000E+00      hds                  
trgw-0-29-15:4199.5   3.3743081310E+01      0.0000000000E+00      hds                  
trgw-0-29-15:4230.5   3.3719917360E+01      0.0000000000E+00      hds                  
trgw-0-29-15:4261.5   3.3699676790E+01      0.0000000000E+00      hds                  
trgw-0-29-15:4291.5   3.3686924360E+01      0.0000000000E+00      hds                  
trgw-0-29-15:4322.5   3.3726478050E+01      0.0000000000E+00      hds                  
trgw-0-29-15:4352.5   3.3766786810E+01      0.0000000000E+00      hds                  
trgw-0-29-15:4383.5   3.3781616140E+01      0.0000000000E+00      hds                  
trgw-0-3-8:3652.5     3.4577569350E+01      0.0000000000E+00      hds                  
trgw-0-3-8:3683.5     3.4570179550E+01      1.0000000000E+01      hds                  
trgw-0-3-8:3712.5     3.4534895420E+01      1.0000000000E+01      hds                  
trgw-0-3-8:3743.5     3.4696687260E+01      1.0000000000E+01      hds                  
trgw-0-3-8:3773.5     3.4567440710E+01      1.0000000000E+01      hds                  
trgw-0-3-8:3804.5     3.4534853710E+01      1.0000000000E+01      hds                  
trgw-0-3-8:3834.5     3.4423983390E+01      1.0000000000E+01      hds                  
trgw-0-3-8:3865.5     3.4324681950E+01      1.0000000000E+01      hds                  
trgw-0-3-8:3896.5     3.4249384390E+01      1.0000000000E+01      hds                  
trgw-0-3-8:3926.5     3.4213665700E+01      1.0000000000E+01      hds                  
trgw-0-3-8:3957.5     3.4324145470E+01      1.0000000000E+01      hds                  
trgw-0-3-8:3987.5     3.4283057070E+01      1.0000000000E+01      hds                  
trgw-0-3-8:4018.5     3.4322065820E+01      1.0000000000E+01      hds                  
trgw-0-3-8:4049.5     3.4401833890E+01      0.0000000000E+00      hds                  
trgw-0-3-8:4077.5     3.4594606310E+01      0.0000000000E+00      hds                  
trgw-0-3-8:4108.5     3.4527501870E+01      0.0000000000E+00      hds                  
trgw-0-3-8:4138.5     3.4465052280E+01      0.0000000000E+00      hds                  
trgw-0-3-8:4169.5     3.4381022240E+01      0.0000000000E+00      hds                  