# Name file for MODPATH 7, generated by Flopy version 3.3.4.
MPBAS      freyberg_mp.mpbas
GRBDIS     freyberg6.dis.grb
TDIS       freyberg6.tdis
HEAD       freyberg6_freyberg.hds
BUDGET     freyberg6_freyberg.cbc
