# File generated by Flopy version 3.3.6 on 03/16/2022 at 17:23:26.
BEGIN Options
  PRINT_INPUT
  PRINT_FLOWS
  SAVE_FLOWS
END Options

BEGIN Dimensions
  MAXBOUND  30
END Dimensions

BEGIN PERIOD  1
    OPEN/CLOSE  'freyberg6.ghb_stress_period_data_1.txt'
END PERIOD  1

