MODPATH_ENDPOINT_FILE         7         2
    1         1         1         0   0.0000000000E+00  0.0000000000E+00  0.0000000000E+00  0.0000000000E+00
       0       0       1       0       0       0       0       0       0       0
         1
pg1             
END HEADER
         1         1         0    2  0.0000000000E+00  0.1681349673E+06       263    1  0.5000000000E+00  0.5000000000E+00  0.5000000000E+00  0.6250000000E+03  0.6625000000E+04  0.3381616613E+02    1    0       496    1  0.7558578548E+00  0.4293129680E+00  0.1000000000E+01  0.3938964464E+04  0.3857328242E+04  0.3383356005E+02    1    6
