# File generated by Flopy version 3.3.5 on 04/21/2022 at 16:58:22.
BEGIN Options
  TIME_UNITS  days
END Options

BEGIN Dimensions
  NPER  25
END Dimensions

BEGIN PERIODDATA
    3652.50000000  1       1.00000000  TSMULT
      31.00000000  1       1.00000000  TSMULT
      29.00000000  1       1.00000000  TSMULT
      31.00000000  1       1.00000000  TSMULT
      30.00000000  1       1.00000000  TSMULT
      31.00000000  1       1.00000000  TSMULT
      30.00000000  1       1.00000000  TSMULT
      31.00000000  1       1.00000000  TSMULT
      31.00000000  1       1.00000000  TSMULT
      30.00000000  1       1.00000000  TSMULT
      31.00000000  1       1.00000000  TSMULT
      30.00000000  1       1.00000000  TSMULT
      31.00000000  1       1.00000000  TSMULT
      31.00000000  1       1.00000000  TSMULT
      28.00000000  1       1.00000000  TSMULT
      31.00000000  1       1.00000000  TSMULT
      30.00000000  1       1.00000000  TSMULT
      31.00000000  1       1.00000000  TSMULT
      30.00000000  1       1.00000000  TSMULT
      31.00000000  1       1.00000000  TSMULT
      31.00000000  1       1.00000000  TSMULT
      30.00000000  1       1.00000000  TSMULT
      31.00000000  1       1.00000000  TSMULT
      30.00000000  1       1.00000000
      31.00000000  1       1.00000000
END PERIODDATA

