# File generated by Flopy version 3.3.6 on 03/16/2022 at 17:23:26.
BEGIN GRIDDATA
  strt  LAYERED
    OPEN/CLOSE  'freyberg6.ic_strt_layer1.txt'  FACTOR  1.0
    OPEN/CLOSE  'freyberg6.ic_strt_layer2.txt'  FACTOR  1.0
    OPEN/CLOSE  'freyberg6.ic_strt_layer3.txt'  FACTOR  1.0
END GRIDDATA

