# File generated by Flopy version 3.3.5 on 04/11/2022 at 13:21:31.
BEGIN options
  DIGITS  10
  PRINT_INPUT
END options

BEGIN continuous  FILEOUT  heads.csv
    OPEN/CLOSE  'head.obs_continuous_heads.csv.txt'
END continuous  FILEOUT  heads.csv

