# File generated by Flopy version 3.3.6 on 03/16/2022 at 17:23:26.
BEGIN options
  DIGITS  10
  PRINT_INPUT
END options

BEGIN continuous  FILEOUT  heads.csv
    OPEN/CLOSE  'head.obs_continuous_heads.csv.txt'
END continuous  FILEOUT  heads.csv

