# File generated by Flopy version 3.3.5 on 04/20/2022 at 15:56:33.
BEGIN options
END options

BEGIN continuous  FILEOUT  sfr.csv
    OPEN/CLOSE  'sfr.obs_continuous_sfr.csv.txt'
END continuous  FILEOUT  sfr.csv

