# File generated by Flopy version 3.3.5 on 03/15/2022 at 15:50:26.
BEGIN options
END options

BEGIN continuous  FILEOUT  sfr.csv
    OPEN/CLOSE  'sfr.obs_continuous_sfr.csv.txt'
END continuous  FILEOUT  sfr.csv

