# File generated by Flopy version 3.3.5 on 03/17/2022 at 12:41:01.
BEGIN options
END options

BEGIN continuous  FILEOUT  sfr.csv
    OPEN/CLOSE  'sfr.obs_continuous_sfr.csv.txt'
END continuous  FILEOUT  sfr.csv

