pcf
* control data
             restart          estimation
         5       725         2         0         2
         4         2              single               point         1
   2.000000E+01  -3.000000E+00   3.000000E-01   1.000000E-02        -7
   1.000000E+01   1.000000E+01   1.000000E-03
   1.000000E-01
         0   1.000000E-02         3         3   1.000000E-02         3
         0         0         0
* singular value decomposition
         1
  10000000    1.000000E-06
1
* parameter groups
hk                     relative              1.0000000000E-02      0.0 switch                2.0000000000E+00      parabolic             1.0000000000E-05      5.0000000000E-01      smaller              
rch                    relative              1.0000000000E-02      0.0 switch                2.0000000000E+00      parabolic             1.0000000000E-05      5.0000000000E-01      smaller              
* parameter data
hk1                   log                   factor                5.0000000000E+00      5.0000000000E-02      5.0000000000E+01      hk                    1.0000000000E+00      0.0000000000E+00      
hk2                   log                   factor                5.0000000000E+00      5.0000000000E-02      5.0000000000E+01      hk                    1.0000000000E+00      0.0000000000E+00      
hk3                   log                   factor                5.0000000000E+00      5.0000000000E-02      5.0000000000E+01      hk                    1.0000000000E+00      0.0000000000E+00      
rch0                  fixed                 factor                1.0000000000E+00      5.0000000000E-01      2.0000000000E+00      rch                   1.0000000000E+00      0.0000000000E+00      
rch1                  fixed                 factor                1.0000000000E+00      5.0000000000E-01      2.0000000000E+00      rch                   1.0000000000E+00      0.0000000000E+00      
* observation groups
flux                 
hds                  
* observation data
gage-1:3652.5         1.4348000000E+03      0.0000000000E+00      flux                 
gage-1:3683.5         1.6630000000E+03      0.0000000000E+00      flux                 
gage-1:3712.5         1.9884000000E+03      0.0000000000E+00      flux                 
gage-1:3743.5         2.1100000000E+03      0.0000000000E+00      flux                 
gage-1:3773.5         2.0305000000E+03      0.0000000000E+00      flux                 
gage-1:3804.5         1.8488000000E+03      0.0000000000E+00      flux                 
gage-1:3834.5         1.5352000000E+03      0.0000000000E+00      flux                 
gage-1:3865.5         1.1450000000E+03      0.0000000000E+00      flux                 
gage-1:3896.5         6.8614000000E+02      0.0000000000E+00      flux                 
gage-1:3926.5         4.6561000000E+02      0.0000000000E+00      flux                 
gage-1:3957.5         4.6566000000E+02      0.0000000000E+00      flux                 
gage-1:3987.5         6.3842000000E+02      0.0000000000E+00      flux                 
gage-1:4018.5         8.7782000000E+02      0.0000000000E+00      flux                 
gage-1:4049.5         1.2258000000E+03      0.0000000000E+00      flux                 
gage-1:4077.5         1.5080000000E+03      0.0000000000E+00      flux                 
gage-1:4108.5         1.7050000000E+03      0.0000000000E+00      flux                 
gage-1:4138.5         1.5355000000E+03      0.0000000000E+00      flux                 
gage-1:4169.5         1.3468000000E+03      0.0000000000E+00      flux                 
gage-1:4199.5         1.0796000000E+03      0.0000000000E+00      flux                 
gage-1:4230.5         8.2822000000E+02      0.0000000000E+00      flux                 
gage-1:4261.5         6.0152000000E+02      0.0000000000E+00      flux                 
gage-1:4291.5         4.8830000000E+02      0.0000000000E+00      flux                 
gage-1:4322.5         5.6757000000E+02      0.0000000000E+00      flux                 
gage-1:4352.5         8.7985000000E+02      0.0000000000E+00      flux                 
gage-1:4383.5         1.4088000000E+03      0.0000000000E+00      flux                 
headwater:3652.5      -7.9587000000E+02     0.0000000000E+00      flux                 
headwater:3683.5      -8.8890000000E+02     0.0000000000E+00      flux                 
headwater:3712.5      -1.0778000000E+03     0.0000000000E+00      flux                 
headwater:3743.5      -1.1524000000E+03     0.0000000000E+00      flux                 
headwater:3773.5      -1.1203000000E+03     0.0000000000E+00      flux                 
headwater:3804.5      -1.0407000000E+03     0.0000000000E+00      flux                 
headwater:3834.5      -8.7420000000E+02     0.0000000000E+00      flux                 
headwater:3865.5      -6.6247000000E+02     0.0000000000E+00      flux                 
headwater:3896.5      -3.9622000000E+02     0.0000000000E+00      flux                 
headwater:3926.5      -2.6647000000E+02     0.0000000000E+00      flux                 
headwater:3957.5      -2.5108000000E+02     0.0000000000E+00      flux                 
headwater:3987.5      -3.1962000000E+02     0.0000000000E+00      flux                 
headwater:4018.5      -4.4977000000E+02     0.0000000000E+00      flux                 
headwater:4049.5      -6.2396000000E+02     0.0000000000E+00      flux                 
headwater:4077.5      -7.7253000000E+02     0.0000000000E+00      flux                 
headwater:4108.5      -9.0092000000E+02     0.0000000000E+00      flux                 
headwater:4138.5      -8.2161000000E+02     0.0000000000E+00      flux                 
headwater:4169.5      -7.3562000000E+02     0.0000000000E+00      flux                 
headwater:4199.5      -5.9465000000E+02     0.0000000000E+00      flux                 
headwater:4230.5      -4.6584000000E+02     0.0000000000E+00      flux                 
headwater:4261.5      -3.3083000000E+02     0.0000000000E+00      flux                 
headwater:4291.5      -2.5027000000E+02     0.0000000000E+00      flux                 
headwater:4322.5      -2.9384000000E+02     0.0000000000E+00      flux                 
headwater:4352.5      -4.4516000000E+02     0.0000000000E+00      flux                 
headwater:4383.5      -7.1380000000E+02     0.0000000000E+00      flux                 
tailwater:3652.5      -5.8111000000E+02     0.0000000000E+00      flux                 
tailwater:3683.5      -6.5780000000E+02     0.0000000000E+00      flux                 
tailwater:3712.5      -8.1042000000E+02     0.0000000000E+00      flux                 
tailwater:3743.5      -8.6274000000E+02     0.0000000000E+00      flux                 
tailwater:3773.5      -8.3400000000E+02     0.0000000000E+00      flux                 
tailwater:3804.5      -7.4732000000E+02     0.0000000000E+00      flux                 
tailwater:3834.5      -6.2205000000E+02     0.0000000000E+00      flux                 
tailwater:3865.5      -4.5485000000E+02     0.0000000000E+00      flux                 
tailwater:3896.5      -2.6545000000E+02     0.0000000000E+00      flux                 
tailwater:3926.5      -1.5941000000E+02     0.0000000000E+00      flux                 
tailwater:3957.5      -1.6196000000E+02     0.0000000000E+00      flux                 
tailwater:3987.5      -2.3570000000E+02     0.0000000000E+00      flux                 
tailwater:4018.5      -3.3374000000E+02     0.0000000000E+00      flux                 
tailwater:4049.5      -4.7837000000E+02     0.0000000000E+00      flux                 
tailwater:4077.5      -5.9234000000E+02     0.0000000000E+00      flux                 
tailwater:4108.5      -6.8715000000E+02     0.0000000000E+00      flux                 
tailwater:4138.5      -6.2799000000E+02     0.0000000000E+00      flux                 
tailwater:4169.5      -5.6694000000E+02     0.0000000000E+00      flux                 
tailwater:4199.5      -4.6317000000E+02     0.0000000000E+00      flux                 
tailwater:4230.5      -3.4127000000E+02     0.0000000000E+00      flux                 
tailwater:4261.5      -2.4349000000E+02     0.0000000000E+00      flux                 
tailwater:4291.5      -1.8653000000E+02     0.0000000000E+00      flux                 
tailwater:4322.5      -2.0559000000E+02     0.0000000000E+00      flux                 
tailwater:4352.5      -3.2414000000E+02     0.0000000000E+00      flux                 
tailwater:4383.5      -5.5059000000E+02     0.0000000000E+00      flux                 
trgw-0-13-10:3652.5   3.4450599000E+01      0.0000000000E+00      hds                  
trgw-0-13-10:3683.5   3.4520447230E+01      1.0000000000E+01      hds                  
trgw-0-13-10:3712.5   3.4649069220E+01      1.0000000000E+01      hds                  
trgw-0-13-10:3743.5   3.4704266110E+01      1.0000000000E+01      hds                  
trgw-0-13-10:3773.5   3.4679135180E+01      1.0000000000E+01      hds                  
trgw-0-13-10:3804.5   3.4619177190E+01      1.0000000000E+01      hds                  
trgw-0-13-10:3834.5   3.4502837000E+01      1.0000000000E+01      hds                  
trgw-0-13-10:3865.5   3.4352561680E+01      1.0000000000E+01      hds                  
trgw-0-13-10:3896.5   3.4156622090E+01      1.0000000000E+01      hds                  
trgw-0-13-10:3926.5   3.4064444480E+01      1.0000000000E+01      hds                  
trgw-0-13-10:3957.5   3.4055570370E+01      1.0000000000E+01      hds                  
trgw-0-13-10:3987.5   3.4102170670E+01      1.0000000000E+01      hds                  
trgw-0-13-10:4018.5   3.4198833990E+01      1.0000000000E+01      hds                  
trgw-0-13-10:4049.5   3.4328269320E+01      0.0000000000E+00      hds                  
trgw-0-13-10:4077.5   3.4435315580E+01      0.0000000000E+00      hds                  
trgw-0-13-10:4108.5   3.4527339130E+01      0.0000000000E+00      hds                  
trgw-0-13-10:4138.5   3.4474599710E+01      0.0000000000E+00      hds                  
trgw-0-13-10:4169.5   3.4407493940E+01      0.0000000000E+00      hds                  
trgw-0-13-10:4199.5   3.4307839120E+01      0.0000000000E+00      hds                  
trgw-0-13-10:4230.5   3.4215709350E+01      0.0000000000E+00      hds                  
trgw-0-13-10:4261.5   3.4115936860E+01      0.0000000000E+00      hds                  
trgw-0-13-10:4291.5   3.4055575700E+01      0.0000000000E+00      hds                  
trgw-0-13-10:4322.5   3.4084352470E+01      0.0000000000E+00      hds                  
trgw-0-13-10:4352.5   3.4192999190E+01      0.0000000000E+00      hds                  
trgw-0-13-10:4383.5   3.4387800680E+01      0.0000000000E+00      hds                  
trgw-0-15-16:3652.5   3.4382728630E+01      0.0000000000E+00      hds                  
trgw-0-15-16:3683.5   3.4450573200E+01      1.0000000000E+01      hds                  
trgw-0-15-16:3712.5   3.4574890290E+01      1.0000000000E+01      hds                  
trgw-0-15-16:3743.5   3.4627359770E+01      1.0000000000E+01      hds                  
trgw-0-15-16:3773.5   3.4603214770E+01      1.0000000000E+01      hds                  
trgw-0-15-16:3804.5   3.4543610830E+01      1.0000000000E+01      hds                  
trgw-0-15-16:3834.5   3.4434348630E+01      1.0000000000E+01      hds                  
trgw-0-15-16:3865.5   3.4288854950E+01      1.0000000000E+01      hds                  
trgw-0-15-16:3896.5   3.4103357170E+01      1.0000000000E+01      hds                  
trgw-0-15-16:3926.5   3.4012562410E+01      1.0000000000E+01      hds                  
trgw-0-15-16:3957.5   3.4001229640E+01      1.0000000000E+01      hds                  
trgw-0-15-16:3987.5   3.4046446120E+01      1.0000000000E+01      hds                  
trgw-0-15-16:4018.5   3.4140696850E+01      1.0000000000E+01      hds                  
trgw-0-15-16:4049.5   3.4267683390E+01      0.0000000000E+00      hds                  
trgw-0-15-16:4077.5   3.4371362920E+01      0.0000000000E+00      hds                  
trgw-0-15-16:4108.5   3.4460576240E+01      0.0000000000E+00      hds                  
trgw-0-15-16:4138.5   3.4413008210E+01      0.0000000000E+00      hds                  
trgw-0-15-16:4169.5   3.4348928470E+01      0.0000000000E+00      hds                  
trgw-0-15-16:4199.5   3.4249413550E+01      0.0000000000E+00      hds                  
trgw-0-15-16:4230.5   3.4163535370E+01      0.0000000000E+00      hds                  
trgw-0-15-16:4261.5   3.4072059210E+01      0.0000000000E+00      hds                  
trgw-0-15-16:4291.5   3.4010519870E+01      0.0000000000E+00      hds                  
trgw-0-15-16:4322.5   3.4028062850E+01      0.0000000000E+00      hds                  
trgw-0-15-16:4352.5   3.4133520880E+01      0.0000000000E+00      hds                  
trgw-0-15-16:4383.5   3.4323919560E+01      0.0000000000E+00      hds                  
trgw-0-2-15:3652.5    3.4421819760E+01      0.0000000000E+00      hds                  
trgw-0-2-15:3683.5    3.4468901810E+01      1.0000000000E+01      hds                  
trgw-0-2-15:3712.5    3.4571966050E+01      1.0000000000E+01      hds                  
trgw-0-2-15:3743.5    3.4616375400E+01      1.0000000000E+01      hds                  
trgw-0-2-15:3773.5    3.4606586010E+01      1.0000000000E+01      hds                  
trgw-0-2-15:3804.5    3.4566723170E+01      1.0000000000E+01      hds                  
trgw-0-2-15:3834.5    3.4472846330E+01      1.0000000000E+01      hds                  
trgw-0-2-15:3865.5    3.4359339460E+01      1.0000000000E+01      hds                  
trgw-0-2-15:3896.5    3.4218594110E+01      1.0000000000E+01      hds                  
trgw-0-2-15:3926.5    3.4139142930E+01      1.0000000000E+01      hds                  
trgw-0-2-15:3957.5    3.4120821980E+01      1.0000000000E+01      hds                  
trgw-0-2-15:3987.5    3.4163188510E+01      1.0000000000E+01      hds                  
trgw-0-2-15:4018.5    3.4226919100E+01      1.0000000000E+01      hds                  
trgw-0-2-15:4049.5    3.4319723490E+01      0.0000000000E+00      hds                  
trgw-0-2-15:4077.5    3.4399491880E+01      0.0000000000E+00      hds                  
trgw-0-2-15:4108.5    3.4468527960E+01      0.0000000000E+00      hds                  
trgw-0-2-15:4138.5    3.4429069870E+01      0.0000000000E+00      hds                  
trgw-0-2-15:4169.5    3.4384223000E+01      0.0000000000E+00      hds                  
trgw-0-2-15:4199.5    3.4309458230E+01      0.0000000000E+00      hds                  
trgw-0-2-15:4230.5    3.4235476770E+01      0.0000000000E+00      hds                  
trgw-0-2-15:4261.5    3.4159497290E+01      0.0000000000E+00      hds                  
trgw-0-2-15:4291.5    3.4115038180E+01      0.0000000000E+00      hds                  
trgw-0-2-15:4322.5    3.4146368730E+01      0.0000000000E+00      hds                  
trgw-0-2-15:4352.5    3.4229561870E+01      0.0000000000E+00      hds                  
trgw-0-2-15:4383.5    3.4374767500E+01      0.0000000000E+00      hds                  
trgw-0-2-9:3652.5     3.4619197360E+01      0.0000000000E+00      hds                  
trgw-0-2-9:3683.5     3.4672610340E+01      1.0000000000E+01      hds                  
trgw-0-2-9:3712.5     3.4809751730E+01      1.0000000000E+01      hds                  
trgw-0-2-9:3743.5     3.4868177650E+01      1.0000000000E+01      hds                  
trgw-0-2-9:3773.5     3.4861855380E+01      1.0000000000E+01      hds                  
trgw-0-2-9:3804.5     3.4812545740E+01      1.0000000000E+01      hds                  
trgw-0-2-9:3834.5     3.4688413200E+01      1.0000000000E+01      hds                  
trgw-0-2-9:3865.5     3.4540712480E+01      1.0000000000E+01      hds                  
trgw-0-2-9:3896.5     3.4360832900E+01      1.0000000000E+01      hds                  
trgw-0-2-9:3926.5     3.4255523880E+01      1.0000000000E+01      hds                  
trgw-0-2-9:3957.5     3.4223503160E+01      1.0000000000E+01      hds                  
trgw-0-2-9:3987.5     3.4287202690E+01      1.0000000000E+01      hds                  
trgw-0-2-9:4018.5     3.4356391510E+01      1.0000000000E+01      hds                  
trgw-0-2-9:4049.5     3.4472135920E+01      0.0000000000E+00      hds                  
trgw-0-2-9:4077.5     3.4572721790E+01      0.0000000000E+00      hds                  
trgw-0-2-9:4108.5     3.4662447220E+01      0.0000000000E+00      hds                  
trgw-0-2-9:4138.5     3.4610550610E+01      0.0000000000E+00      hds                  
trgw-0-2-9:4169.5     3.4559150710E+01      0.0000000000E+00      hds                  
trgw-0-2-9:4199.5     3.4466892550E+01      0.0000000000E+00      hds                  
trgw-0-2-9:4230.5     3.4364365210E+01      0.0000000000E+00      hds                  
trgw-0-2-9:4261.5     3.4263262410E+01      0.0000000000E+00      hds                  
trgw-0-2-9:4291.5     3.4207415590E+01      0.0000000000E+00      hds                  
trgw-0-2-9:4322.5     3.4255802850E+01      0.0000000000E+00      hds                  
trgw-0-2-9:4352.5     3.4360323430E+01      0.0000000000E+00      hds                  
trgw-0-2-9:4383.5     3.4549607940E+01      0.0000000000E+00      hds                  
trgw-0-21-10:3652.5   3.4389061760E+01      0.0000000000E+00      hds                  
trgw-0-21-10:3683.5   3.4469298260E+01      1.0000000000E+01      hds                  
trgw-0-21-10:3712.5   3.4617134890E+01      1.0000000000E+01      hds                  
trgw-0-21-10:3743.5   3.4676081670E+01      1.0000000000E+01      hds                  
trgw-0-21-10:3773.5   3.4653800700E+01      1.0000000000E+01      hds                  
trgw-0-21-10:3804.5   3.4579408190E+01      1.0000000000E+01      hds                  
trgw-0-21-10:3834.5   3.4446244830E+01      1.0000000000E+01      hds                  
trgw-0-21-10:3865.5   3.4270029240E+01      1.0000000000E+01      hds                  
trgw-0-21-10:3896.5   3.4065175120E+01      1.0000000000E+01      hds                  
trgw-0-21-10:3926.5   3.3965830010E+01      1.0000000000E+01      hds                  
trgw-0-21-10:3957.5   3.3951553390E+01      1.0000000000E+01      hds                  
trgw-0-21-10:3987.5   3.4031403270E+01      1.0000000000E+01      hds                  
trgw-0-21-10:4018.5   3.4127803390E+01      1.0000000000E+01      hds                  
trgw-0-21-10:4049.5   3.4275188280E+01      0.0000000000E+00      hds                  
trgw-0-21-10:4077.5   3.4391576170E+01      0.0000000000E+00      hds                  
trgw-0-21-10:4108.5   3.4490173030E+01      0.0000000000E+00      hds                  
trgw-0-21-10:4138.5   3.4430448940E+01      0.0000000000E+00      hds                  
trgw-0-21-10:4169.5   3.4364608120E+01      0.0000000000E+00      hds                  
trgw-0-21-10:4199.5   3.4250470590E+01      0.0000000000E+00      hds                  
trgw-0-21-10:4230.5   3.4141815490E+01      0.0000000000E+00      hds                  
trgw-0-21-10:4261.5   3.4040074650E+01      0.0000000000E+00      hds                  
trgw-0-21-10:4291.5   3.3972643780E+01      0.0000000000E+00      hds                  
trgw-0-21-10:4322.5   3.3993557360E+01      0.0000000000E+00      hds                  
trgw-0-21-10:4352.5   3.4117917100E+01      0.0000000000E+00      hds                  
trgw-0-21-10:4383.5   3.4341451220E+01      0.0000000000E+00      hds                  
trgw-0-22-15:3652.5   3.4167512680E+01      0.0000000000E+00      hds                  
trgw-0-22-15:3683.5   3.4227692130E+01      1.0000000000E+01      hds                  
trgw-0-22-15:3712.5   3.4327633240E+01      1.0000000000E+01      hds                  
trgw-0-22-15:3743.5   3.4365099430E+01      1.0000000000E+01      hds                  
trgw-0-22-15:3773.5   3.4343495630E+01      1.0000000000E+01      hds                  
trgw-0-22-15:3804.5   3.4290101670E+01      1.0000000000E+01      hds                  
trgw-0-22-15:3834.5   3.4204718300E+01      1.0000000000E+01      hds                  
trgw-0-22-15:3865.5   3.4084502750E+01      1.0000000000E+01      hds                  
trgw-0-22-15:3896.5   3.3943033900E+01      1.0000000000E+01      hds                  
trgw-0-22-15:3926.5   3.3877631710E+01      1.0000000000E+01      hds                  
trgw-0-22-15:3957.5   3.3870404310E+01      1.0000000000E+01      hds                  
trgw-0-22-15:3987.5   3.3919826250E+01      1.0000000000E+01      hds                  
trgw-0-22-15:4018.5   3.3991141310E+01      1.0000000000E+01      hds                  
trgw-0-22-15:4049.5   3.4094755470E+01      0.0000000000E+00      hds                  
trgw-0-22-15:4077.5   3.4174121790E+01      0.0000000000E+00      hds                  
trgw-0-22-15:4108.5   3.4241406050E+01      0.0000000000E+00      hds                  
trgw-0-22-15:4138.5   3.4198436180E+01      0.0000000000E+00      hds                  
trgw-0-22-15:4169.5   3.4149538970E+01      0.0000000000E+00      hds                  
trgw-0-22-15:4199.5   3.4068429420E+01      0.0000000000E+00      hds                  
trgw-0-22-15:4230.5   3.3999513290E+01      0.0000000000E+00      hds                  
trgw-0-22-15:4261.5   3.3932345450E+01      0.0000000000E+00      hds                  
trgw-0-22-15:4291.5   3.3883468330E+01      0.0000000000E+00      hds                  
trgw-0-22-15:4322.5   3.3892106760E+01      0.0000000000E+00      hds                  
trgw-0-22-15:4352.5   3.3982250660E+01      0.0000000000E+00      hds                  
trgw-0-22-15:4383.5   3.4139978380E+01      0.0000000000E+00      hds                  
trgw-0-24-4:3652.5    3.4506945740E+01      0.0000000000E+00      hds                  
trgw-0-24-4:3683.5    3.4576000480E+01      1.0000000000E+01      hds                  
trgw-0-24-4:3712.5    3.4729162770E+01      1.0000000000E+01      hds                  
trgw-0-24-4:3743.5    3.4796597220E+01      1.0000000000E+01      hds                  
trgw-0-24-4:3773.5    3.4796774350E+01      1.0000000000E+01      hds                  
trgw-0-24-4:3804.5    3.4735043370E+01      1.0000000000E+01      hds                  
trgw-0-24-4:3834.5    3.4575908690E+01      1.0000000000E+01      hds                  
trgw-0-24-4:3865.5    3.4389169040E+01      1.0000000000E+01      hds                  
trgw-0-24-4:3896.5    3.4157840870E+01      1.0000000000E+01      hds                  
trgw-0-24-4:3926.5    3.4038677950E+01      1.0000000000E+01      hds                  
trgw-0-24-4:3957.5    3.4007071910E+01      1.0000000000E+01      hds                  
trgw-0-24-4:3987.5    3.4102223800E+01      1.0000000000E+01      hds                  
trgw-0-24-4:4018.5    3.4192453670E+01      1.0000000000E+01      hds                  
trgw-0-24-4:4049.5    3.4340618820E+01      0.0000000000E+00      hds                  
trgw-0-24-4:4077.5    3.4465593010E+01      0.0000000000E+00      hds                  
trgw-0-24-4:4108.5    3.4573964030E+01      0.0000000000E+00      hds                  
trgw-0-24-4:4138.5    3.4522742870E+01      0.0000000000E+00      hds                  
trgw-0-24-4:4169.5    3.4469164940E+01      0.0000000000E+00      hds                  
trgw-0-24-4:4199.5    3.4363974050E+01      0.0000000000E+00      hds                  
trgw-0-24-4:4230.5    3.4231460800E+01      0.0000000000E+00      hds                  
trgw-0-24-4:4261.5    3.4109043970E+01      0.0000000000E+00      hds                  
trgw-0-24-4:4291.5    3.4034560390E+01      0.0000000000E+00      hds                  
trgw-0-24-4:4322.5    3.4068701730E+01      0.0000000000E+00      hds                  
trgw-0-24-4:4352.5    3.4188932050E+01      0.0000000000E+00      hds                  
trgw-0-24-4:4383.5    3.4415408710E+01      0.0000000000E+00      hds                  
trgw-0-26-6:3652.5    3.4423368340E+01      0.0000000000E+00      hds                  
trgw-0-26-6:3683.5    3.4512258340E+01      1.0000000000E+01      hds                  
trgw-0-26-6:3712.5    3.4658435200E+01      1.0000000000E+01      hds                  
trgw-0-26-6:3743.5    3.4724459360E+01      1.0000000000E+01      hds                  
trgw-0-26-6:3773.5    3.4715730230E+01      1.0000000000E+01      hds                  
trgw-0-26-6:3804.5    3.4640721990E+01      1.0000000000E+01      hds                  
trgw-0-26-6:3834.5    3.4459564050E+01      1.0000000000E+01      hds                  
trgw-0-26-6:3865.5    3.4262255860E+01      1.0000000000E+01      hds                  
trgw-0-26-6:3896.5    3.4008368990E+01      1.0000000000E+01      hds                  
trgw-0-26-6:3926.5    3.3913801360E+01      1.0000000000E+01      hds                  
trgw-0-26-6:3957.5    3.3910166660E+01      1.0000000000E+01      hds                  
trgw-0-26-6:3987.5    3.4025041560E+01      1.0000000000E+01      hds                  
trgw-0-26-6:4018.5    3.4132619670E+01      1.0000000000E+01      hds                  
trgw-0-26-6:4049.5    3.4294382870E+01      0.0000000000E+00      hds                  
trgw-0-26-6:4077.5    3.4422227270E+01      0.0000000000E+00      hds                  
trgw-0-26-6:4108.5    3.4527516550E+01      0.0000000000E+00      hds                  
trgw-0-26-6:4138.5    3.4457231670E+01      0.0000000000E+00      hds                  
trgw-0-26-6:4169.5    3.4394488140E+01      0.0000000000E+00      hds                  
trgw-0-26-6:4199.5    3.4275498280E+01      0.0000000000E+00      hds                  
trgw-0-26-6:4230.5    3.4134604510E+01      0.0000000000E+00      hds                  
trgw-0-26-6:4261.5    3.4011168410E+01      0.0000000000E+00      hds                  
trgw-0-26-6:4291.5    3.3941366990E+01      0.0000000000E+00      hds                  
trgw-0-26-6:4322.5    3.3985497220E+01      0.0000000000E+00      hds                  
trgw-0-26-6:4352.5    3.4125376910E+01      0.0000000000E+00      hds                  
trgw-0-26-6:4383.5    3.4353096140E+01      0.0000000000E+00      hds                  
trgw-0-29-15:3652.5   3.4131895970E+01      0.0000000000E+00      hds                  
trgw-0-29-15:3683.5   3.4196381280E+01      1.0000000000E+01      hds                  
trgw-0-29-15:3712.5   3.4318156240E+01      1.0000000000E+01      hds                  
trgw-0-29-15:3743.5   3.4359973210E+01      1.0000000000E+01      hds                  
trgw-0-29-15:3773.5   3.4339031360E+01      1.0000000000E+01      hds                  
trgw-0-29-15:3804.5   3.4271800370E+01      1.0000000000E+01      hds                  
trgw-0-29-15:3834.5   3.4165376030E+01      1.0000000000E+01      hds                  
trgw-0-29-15:3865.5   3.4028395320E+01      1.0000000000E+01      hds                  
trgw-0-29-15:3896.5   3.3871527770E+01      1.0000000000E+01      hds                  
trgw-0-29-15:3926.5   3.3788498440E+01      1.0000000000E+01      hds                  
trgw-0-29-15:3957.5   3.3788256780E+01      1.0000000000E+01      hds                  
trgw-0-29-15:3987.5   3.3855764520E+01      1.0000000000E+01      hds                  
trgw-0-29-15:4018.5   3.3935369310E+01      1.0000000000E+01      hds                  
trgw-0-29-15:4049.5   3.4053482400E+01      0.0000000000E+00      hds                  
trgw-0-29-15:4077.5   3.4145375240E+01      0.0000000000E+00      hds                  
trgw-0-29-15:4108.5   3.4220966270E+01      0.0000000000E+00      hds                  
trgw-0-29-15:4138.5   3.4171025750E+01      0.0000000000E+00      hds                  
trgw-0-29-15:4169.5   3.4120947150E+01      0.0000000000E+00      hds                  
trgw-0-29-15:4199.5   3.4034616650E+01      0.0000000000E+00      hds                  
trgw-0-29-15:4230.5   3.3936597780E+01      0.0000000000E+00      hds                  
trgw-0-29-15:4261.5   3.3854148180E+01      0.0000000000E+00      hds                  
trgw-0-29-15:4291.5   3.3807620760E+01      0.0000000000E+00      hds                  
trgw-0-29-15:4322.5   3.3829629880E+01      0.0000000000E+00      hds                  
trgw-0-29-15:4352.5   3.3929899880E+01      0.0000000000E+00      hds                  
trgw-0-29-15:4383.5   3.4112742330E+01      0.0000000000E+00      hds                  
trgw-0-3-8:3652.5     3.4632579390E+01      0.0000000000E+00      hds                  
trgw-0-3-8:3683.5     3.4683977370E+01      1.0000000000E+01      hds                  
trgw-0-3-8:3712.5     3.4820127780E+01      1.0000000000E+01      hds                  
trgw-0-3-8:3743.5     3.4880618030E+01      1.0000000000E+01      hds                  
trgw-0-3-8:3773.5     3.4876201180E+01      1.0000000000E+01      hds                  
trgw-0-3-8:3804.5     3.4827965560E+01      1.0000000000E+01      hds                  
trgw-0-3-8:3834.5     3.4704761580E+01      1.0000000000E+01      hds                  
trgw-0-3-8:3865.5     3.4556686940E+01      1.0000000000E+01      hds                  
trgw-0-3-8:3896.5     3.4376719670E+01      1.0000000000E+01      hds                  
trgw-0-3-8:3926.5     3.4268631110E+01      1.0000000000E+01      hds                  
trgw-0-3-8:3957.5     3.4233498560E+01      1.0000000000E+01      hds                  
trgw-0-3-8:3987.5     3.4295316920E+01      1.0000000000E+01      hds                  
trgw-0-3-8:4018.5     3.4363492020E+01      1.0000000000E+01      hds                  
trgw-0-3-8:4049.5     3.4478526430E+01      0.0000000000E+00      hds                  
trgw-0-3-8:4077.5     3.4579582110E+01      0.0000000000E+00      hds                  
trgw-0-3-8:4108.5     3.4670512190E+01      0.0000000000E+00      hds                  
trgw-0-3-8:4138.5     3.4621341210E+01      0.0000000000E+00      hds                  
trgw-0-3-8:4169.5     3.4570540210E+01      0.0000000000E+00      hds                  