pcf
* control data
             restart          estimation
        32        24         1         0         1         0
         1         1              single               point         1         0         0          noobsreref
   2.000000E+01  -3.000000E+00   3.000000E-01   1.000000E-02        -7       999          lamforgive        noderforgive
   1.000000E+01   1.000000E+01   1.000000E-03         0         0
   1.000000E-01         1   1.100000E+00               noaui          nosenreuse        noboundscale
        30   1.000000E-02         3         3   1.000000E-02         3   0.000000E+00         1  -1.000000E+00
         0         0         0         0             jcosave          verboserec          jcosaveitn          reisaveitn          parsaveitn        noparsaverun
* singular value decomposition
         1
  10000000    1.000000E-06
1
* parameter groups
 pargp                   relative              1.0000000000E-02       0.0  switch                2.0000000000E+00       parabolic             1.0000000000E-05      5.0000000000E-01       smaller              
* parameter data
 hk00                   log                    factor                1.0000000000E+00      1.1000000000E-10      1.1000000000E+10       pargp                 1.0000000000E+00      0.0000000000E+00      1          
 hk01                   log                    factor                1.0000000000E+00      1.1000000000E-10      1.1000000000E+10       pargp                 1.0000000000E+00      0.0000000000E+00      1          
 hk02                   log                    factor                1.0000000000E+00      1.1000000000E-10      1.1000000000E+10       pargp                 1.0000000000E+00      0.0000000000E+00      1          
 hk03                   log                    factor                1.0000000000E+00      1.1000000000E-10      1.1000000000E+10       pargp                 1.0000000000E+00      0.0000000000E+00      1          
 hk04                   log                    factor                1.0000000000E+00      1.1000000000E-10      1.1000000000E+10       pargp                 1.0000000000E+00      0.0000000000E+00      1          
 hk05                   log                    factor                1.0000000000E+00      1.1000000000E-10      1.1000000000E+10       pargp                 1.0000000000E+00      0.0000000000E+00      1          
 hk06                   log                    factor                1.0000000000E+00      1.1000000000E-10      1.1000000000E+10       pargp                 1.0000000000E+00      0.0000000000E+00      1          
 hk07                   log                    factor                1.0000000000E+00      1.1000000000E-10      1.1000000000E+10       pargp                 1.0000000000E+00      0.0000000000E+00      1          
 hk08                   log                    factor                1.0000000000E+00      1.1000000000E-10      1.1000000000E+10       pargp                 1.0000000000E+00      0.0000000000E+00      1          
 hk09                   log                    factor                1.0000000000E+00      1.1000000000E-10      1.1000000000E+10       pargp                 1.0000000000E+00      0.0000000000E+00      1          
 hk10                   log                    factor                1.0000000000E+00      1.1000000000E-10      1.1000000000E+10       pargp                 1.0000000000E+00      0.0000000000E+00      1          
 hk11                   log                    factor                1.0000000000E+00      1.1000000000E-10      1.1000000000E+10       pargp                 1.0000000000E+00      0.0000000000E+00      1          
 hk12                   log                    factor                1.0000000000E+00      1.1000000000E-10      1.1000000000E+10       pargp                 1.0000000000E+00      0.0000000000E+00      1          
 hk13                   log                    factor                1.0000000000E+00      1.1000000000E-10      1.1000000000E+10       pargp                 1.0000000000E+00      0.0000000000E+00      1          
 hk14                   log                    factor                1.0000000000E+00      1.1000000000E-10      1.1000000000E+10       pargp                 1.0000000000E+00      0.0000000000E+00      1          
 hk15                   log                    factor                1.0000000000E+00      1.1000000000E-10      1.1000000000E+10       pargp                 1.0000000000E+00      0.0000000000E+00      1          
 hk16                   log                    factor                1.0000000000E+00      1.1000000000E-10      1.1000000000E+10       pargp                 1.0000000000E+00      0.0000000000E+00      1          
 hk17                   log                    factor                1.0000000000E+00      1.1000000000E-10      1.1000000000E+10       pargp                 1.0000000000E+00      0.0000000000E+00      1          
 hk18                   log                    factor                1.0000000000E+00      1.1000000000E-10      1.1000000000E+10       pargp                 1.0000000000E+00      0.0000000000E+00      1          
 hk19                   log                    factor                1.0000000000E+00      1.1000000000E-10      1.1000000000E+10       pargp                 1.0000000000E+00      0.0000000000E+00      1          
 hk20                   log                    factor                1.0000000000E+00      1.1000000000E-10      1.1000000000E+10       pargp                 1.0000000000E+00      0.0000000000E+00      1          
 hk21                   log                    factor                1.0000000000E+00      1.1000000000E-10      1.1000000000E+10       pargp                 1.0000000000E+00      0.0000000000E+00      1          
 hk22                   log                    factor                1.0000000000E+00      1.1000000000E-10      1.1000000000E+10       pargp                 1.0000000000E+00      0.0000000000E+00      1          
 hk23                   log                    factor                1.0000000000E+00      1.1000000000E-10      1.1000000000E+10       pargp                 1.0000000000E+00      0.0000000000E+00      1          
 hk24                   log                    factor                1.0000000000E+00      1.1000000000E-10      1.1000000000E+10       pargp                 1.0000000000E+00      0.0000000000E+00      1          
 hk25                   log                    factor                1.0000000000E+00      1.1000000000E-10      1.1000000000E+10       pargp                 1.0000000000E+00      0.0000000000E+00      1          
 hk26                   log                    factor                1.0000000000E+00      1.1000000000E-10      1.1000000000E+10       pargp                 1.0000000000E+00      0.0000000000E+00      1          
 hk27                   log                    factor                1.0000000000E+00      1.1000000000E-10      1.1000000000E+10       pargp                 1.0000000000E+00      0.0000000000E+00      1          
 hk28                   log                    factor                1.0000000000E+00      1.1000000000E-10      1.1000000000E+10       pargp                 1.0000000000E+00      0.0000000000E+00      1          
 hk29                   log                    factor                1.0000000000E+00      1.1000000000E-10      1.1000000000E+10       pargp                 1.0000000000E+00      0.0000000000E+00      1          
 hk30                   log                    factor                1.0000000000E+00      1.1000000000E-10      1.1000000000E+10       pargp                 1.0000000000E+00      0.0000000000E+00      1          
 hk31                   log                    factor                1.0000000000E+00      1.1000000000E-10      1.1000000000E+10       pargp                 1.0000000000E+00      0.0000000000E+00      1          
* observation groups
obgnme               
* observation data
 flx_constan_19700102  1.0000000000E+10      1.0000000000E+00       obgnme               
 flx_constan_19791231  1.0000000000E+10      1.0000000000E+00       obgnme               
 flx_constan_19800101  1.0000000000E+10      1.0000000000E+00       obgnme               
 flx_in-out_19700102   1.0000000000E+10      1.0000000000E+00       obgnme               
 flx_in-out_19791231   1.0000000000E+10      1.0000000000E+00       obgnme               
 flx_in-out_19800101   1.0000000000E+10      1.0000000000E+00       obgnme               
 flx_percent_19700102  1.0000000000E+10      1.0000000000E+00       obgnme               
 flx_percent_19791231  1.0000000000E+10      1.0000000000E+00       obgnme               
 flx_percent_19800101  1.0000000000E+10      1.0000000000E+00       obgnme               
 flx_recharg_19700102  1.0000000000E+10      1.0000000000E+00       obgnme               
 flx_recharg_19791231  1.0000000000E+10      1.0000000000E+00       obgnme               
 flx_recharg_19800101  1.0000000000E+10      1.0000000000E+00       obgnme               
 flx_storage_19700102  1.0000000000E+10      1.0000000000E+00       obgnme               
 flx_storage_19791231  1.0000000000E+10      1.0000000000E+00       obgnme               
 flx_storage_19800101  1.0000000000E+10      1.0000000000E+00       obgnme               
 flx_stream__19700102  1.0000000000E+10      1.0000000000E+00       obgnme               
 flx_stream__19791231  1.0000000000E+10      1.0000000000E+00       obgnme               
 flx_stream__19800101  1.0000000000E+10      1.0000000000E+00       obgnme               
 flx_total_19700102    1.0000000000E+10      1.0000000000E+00       obgnme               
 flx_total_19791231    1.0000000000E+10      1.0000000000E+00       obgnme               
 flx_total_19800101    1.0000000000E+10      1.0000000000E+00       obgnme               
 flx_wells_19700102    1.0000000000E+10      1.0000000000E+00       obgnme               
 flx_wells_19791231    1.0000000000E+10      1.0000000000E+00       obgnme               
 flx_wells_19800101    1.0000000000E+10      1.0000000000E+00       obgnme               
* model command line
model.bat
* model input/output
hkpp.dat.tpl hkpp.dat
flux.dat.ins flux.dat
