BEGIN Options
  PRINT_INPUT
  PRINT_FLOWS
  SAVE_FLOWS
END Options

BEGIN Dimensions
  MAXBOUND  6
END Dimensions

BEGIN PERIOD  1
    OPEN/CLOSE  'freyberg6.wel_stress_period_data_1.txt'
END PERIOD  1

BEGIN PERIOD  2
    OPEN/CLOSE  'freyberg6.wel_stress_period_data_2.txt'
END PERIOD  2

BEGIN PERIOD  3
    OPEN/CLOSE  'freyberg6.wel_stress_period_data_3.txt'
END PERIOD  3

BEGIN PERIOD  4
    OPEN/CLOSE  'freyberg6.wel_stress_period_data_4.txt'
END PERIOD  4

BEGIN PERIOD  5
    OPEN/CLOSE  'freyberg6.wel_stress_period_data_5.txt'
END PERIOD  5

BEGIN PERIOD  6
    OPEN/CLOSE  'freyberg6.wel_stress_period_data_6.txt'
END PERIOD  6

BEGIN PERIOD  7
    OPEN/CLOSE  'freyberg6.wel_stress_period_data_7.txt'
END PERIOD  7

BEGIN PERIOD  8
    OPEN/CLOSE  'freyberg6.wel_stress_period_data_8.txt'
END PERIOD  8

BEGIN PERIOD  9
    OPEN/CLOSE  'freyberg6.wel_stress_period_data_9.txt'
END PERIOD  9

BEGIN PERIOD  10
    OPEN/CLOSE  'freyberg6.wel_stress_period_data_10.txt'
END PERIOD  10

BEGIN PERIOD  11
    OPEN/CLOSE  'freyberg6.wel_stress_period_data_11.txt'
END PERIOD  11

BEGIN PERIOD  12
    OPEN/CLOSE  'freyberg6.wel_stress_period_data_12.txt'
END PERIOD  12

BEGIN PERIOD  13
    OPEN/CLOSE  'freyberg6.wel_stress_period_data_13.txt'
END PERIOD  13

BEGIN PERIOD  14
    OPEN/CLOSE  'freyberg6.wel_stress_period_data_14.txt'
END PERIOD  14

BEGIN PERIOD  15
    OPEN/CLOSE  'freyberg6.wel_stress_period_data_15.txt'
END PERIOD  15

BEGIN PERIOD  16
    OPEN/CLOSE  'freyberg6.wel_stress_period_data_16.txt'
END PERIOD  16

BEGIN PERIOD  17
    OPEN/CLOSE  'freyberg6.wel_stress_period_data_17.txt'
END PERIOD  17

BEGIN PERIOD  18
    OPEN/CLOSE  'freyberg6.wel_stress_period_data_18.txt'
END PERIOD  18

BEGIN PERIOD  19
    OPEN/CLOSE  'freyberg6.wel_stress_period_data_19.txt'
END PERIOD  19

BEGIN PERIOD  20
    OPEN/CLOSE  'freyberg6.wel_stress_period_data_20.txt'
END PERIOD  20

BEGIN PERIOD  21
    OPEN/CLOSE  'freyberg6.wel_stress_period_data_21.txt'
END PERIOD  21

BEGIN PERIOD  22
    OPEN/CLOSE  'freyberg6.wel_stress_period_data_22.txt'
END PERIOD  22

BEGIN PERIOD  23
    OPEN/CLOSE  'freyberg6.wel_stress_period_data_23.txt'
END PERIOD  23

BEGIN PERIOD  24
    OPEN/CLOSE  'freyberg6.wel_stress_period_data_24.txt'
END PERIOD  24

BEGIN PERIOD  25
    OPEN/CLOSE  'freyberg6.wel_stress_period_data_25.txt'
END PERIOD  25

BEGIN PERIOD  26
    OPEN/CLOSE  'freyberg6.wel_stress_period_data_26.txt'
END PERIOD  26

BEGIN PERIOD  27
    OPEN/CLOSE  'freyberg6.wel_stress_period_data_27.txt'
END PERIOD  27

BEGIN PERIOD  28
    OPEN/CLOSE  'freyberg6.wel_stress_period_data_28.txt'
END PERIOD  28

BEGIN PERIOD  29
    OPEN/CLOSE  'freyberg6.wel_stress_period_data_29.txt'
END PERIOD  29

BEGIN PERIOD  30
    OPEN/CLOSE  'freyberg6.wel_stress_period_data_30.txt'
END PERIOD  30

BEGIN PERIOD  31
    OPEN/CLOSE  'freyberg6.wel_stress_period_data_31.txt'
END PERIOD  31

BEGIN PERIOD  32
    OPEN/CLOSE  'freyberg6.wel_stress_period_data_32.txt'
END PERIOD  32

BEGIN PERIOD  33
    OPEN/CLOSE  'freyberg6.wel_stress_period_data_33.txt'
END PERIOD  33

BEGIN PERIOD  34
    OPEN/CLOSE  'freyberg6.wel_stress_period_data_34.txt'
END PERIOD  34

BEGIN PERIOD  35
    OPEN/CLOSE  'freyberg6.wel_stress_period_data_35.txt'
END PERIOD  35

BEGIN PERIOD  36
    OPEN/CLOSE  'freyberg6.wel_stress_period_data_36.txt'
END PERIOD  36

BEGIN PERIOD  37
    OPEN/CLOSE  'freyberg6.wel_stress_period_data_37.txt'
END PERIOD  37

BEGIN PERIOD  38
    OPEN/CLOSE  'freyberg6.wel_stress_period_data_38.txt'
END PERIOD  38

BEGIN PERIOD  39
    OPEN/CLOSE  'freyberg6.wel_stress_period_data_39.txt'
END PERIOD  39

BEGIN PERIOD  40
    OPEN/CLOSE  'freyberg6.wel_stress_period_data_40.txt'
END PERIOD  40

BEGIN PERIOD  41
    OPEN/CLOSE  'freyberg6.wel_stress_period_data_41.txt'
END PERIOD  41

BEGIN PERIOD  42
    OPEN/CLOSE  'freyberg6.wel_stress_period_data_42.txt'
END PERIOD  42

BEGIN PERIOD  43
    OPEN/CLOSE  'freyberg6.wel_stress_period_data_43.txt'
END PERIOD  43

BEGIN PERIOD  44
    OPEN/CLOSE  'freyberg6.wel_stress_period_data_44.txt'
END PERIOD  44

BEGIN PERIOD  45
    OPEN/CLOSE  'freyberg6.wel_stress_period_data_45.txt'
END PERIOD  45

BEGIN PERIOD  46
    OPEN/CLOSE  'freyberg6.wel_stress_period_data_46.txt'
END PERIOD  46

BEGIN PERIOD  47
    OPEN/CLOSE  'freyberg6.wel_stress_period_data_47.txt'
END PERIOD  47

BEGIN PERIOD  48
    OPEN/CLOSE  'freyberg6.wel_stress_period_data_48.txt'
END PERIOD  48

BEGIN PERIOD  49
    OPEN/CLOSE  'freyberg6.wel_stress_period_data_49.txt'
END PERIOD  49

BEGIN PERIOD  50
    OPEN/CLOSE  'freyberg6.wel_stress_period_data_50.txt'
END PERIOD  50

BEGIN PERIOD  51
    OPEN/CLOSE  'freyberg6.wel_stress_period_data_51.txt'
END PERIOD  51

BEGIN PERIOD  52
    OPEN/CLOSE  'freyberg6.wel_stress_period_data_52.txt'
END PERIOD  52

BEGIN PERIOD  53
    OPEN/CLOSE  'freyberg6.wel_stress_period_data_53.txt'
END PERIOD  53

BEGIN PERIOD  54
    OPEN/CLOSE  'freyberg6.wel_stress_period_data_54.txt'
END PERIOD  54

BEGIN PERIOD  55
    OPEN/CLOSE  'freyberg6.wel_stress_period_data_55.txt'
END PERIOD  55

BEGIN PERIOD  56
    OPEN/CLOSE  'freyberg6.wel_stress_period_data_56.txt'
END PERIOD  56

BEGIN PERIOD  57
    OPEN/CLOSE  'freyberg6.wel_stress_period_data_57.txt'
END PERIOD  57

BEGIN PERIOD  58
    OPEN/CLOSE  'freyberg6.wel_stress_period_data_58.txt'
END PERIOD  58

BEGIN PERIOD  59
    OPEN/CLOSE  'freyberg6.wel_stress_period_data_59.txt'
END PERIOD  59

BEGIN PERIOD  60
    OPEN/CLOSE  'freyberg6.wel_stress_period_data_60.txt'
END PERIOD  60

BEGIN PERIOD  61
    OPEN/CLOSE  'freyberg6.wel_stress_period_data_61.txt'
END PERIOD  61

BEGIN PERIOD  62
    OPEN/CLOSE  'freyberg6.wel_stress_period_data_62.txt'
END PERIOD  62

BEGIN PERIOD  63
    OPEN/CLOSE  'freyberg6.wel_stress_period_data_63.txt'
END PERIOD  63

BEGIN PERIOD  64
    OPEN/CLOSE  'freyberg6.wel_stress_period_data_64.txt'
END PERIOD  64

BEGIN PERIOD  65
    OPEN/CLOSE  'freyberg6.wel_stress_period_data_65.txt'
END PERIOD  65

BEGIN PERIOD  66
    OPEN/CLOSE  'freyberg6.wel_stress_period_data_66.txt'
END PERIOD  66

BEGIN PERIOD  67
    OPEN/CLOSE  'freyberg6.wel_stress_period_data_67.txt'
END PERIOD  67

BEGIN PERIOD  68
    OPEN/CLOSE  'freyberg6.wel_stress_period_data_68.txt'
END PERIOD  68

BEGIN PERIOD  69
    OPEN/CLOSE  'freyberg6.wel_stress_period_data_69.txt'
END PERIOD  69

BEGIN PERIOD  70
    OPEN/CLOSE  'freyberg6.wel_stress_period_data_70.txt'
END PERIOD  70

BEGIN PERIOD  71
    OPEN/CLOSE  'freyberg6.wel_stress_period_data_71.txt'
END PERIOD  71

BEGIN PERIOD  72
    OPEN/CLOSE  'freyberg6.wel_stress_period_data_72.txt'
END PERIOD  72

BEGIN PERIOD  73
    OPEN/CLOSE  'freyberg6.wel_stress_period_data_73.txt'
END PERIOD  73

BEGIN PERIOD  74
    OPEN/CLOSE  'freyberg6.wel_stress_period_data_74.txt'
END PERIOD  74

BEGIN PERIOD  75
    OPEN/CLOSE  'freyberg6.wel_stress_period_data_75.txt'
END PERIOD  75

BEGIN PERIOD  76
    OPEN/CLOSE  'freyberg6.wel_stress_period_data_76.txt'
END PERIOD  76

BEGIN PERIOD  77
    OPEN/CLOSE  'freyberg6.wel_stress_period_data_77.txt'
END PERIOD  77

BEGIN PERIOD  78
    OPEN/CLOSE  'freyberg6.wel_stress_period_data_78.txt'
END PERIOD  78

BEGIN PERIOD  79
    OPEN/CLOSE  'freyberg6.wel_stress_period_data_79.txt'
END PERIOD  79

BEGIN PERIOD  80
    OPEN/CLOSE  'freyberg6.wel_stress_period_data_80.txt'
END PERIOD  80

BEGIN PERIOD  81
    OPEN/CLOSE  'freyberg6.wel_stress_period_data_81.txt'
END PERIOD  81

BEGIN PERIOD  82
    OPEN/CLOSE  'freyberg6.wel_stress_period_data_82.txt'
END PERIOD  82

BEGIN PERIOD  83
    OPEN/CLOSE  'freyberg6.wel_stress_period_data_83.txt'
END PERIOD  83

BEGIN PERIOD  84
    OPEN/CLOSE  'freyberg6.wel_stress_period_data_84.txt'
END PERIOD  84

BEGIN PERIOD  85
    OPEN/CLOSE  'freyberg6.wel_stress_period_data_85.txt'
END PERIOD  85

BEGIN PERIOD  86
    OPEN/CLOSE  'freyberg6.wel_stress_period_data_86.txt'
END PERIOD  86

BEGIN PERIOD  87
    OPEN/CLOSE  'freyberg6.wel_stress_period_data_87.txt'
END PERIOD  87

BEGIN PERIOD  88
    OPEN/CLOSE  'freyberg6.wel_stress_period_data_88.txt'
END PERIOD  88

BEGIN PERIOD  89
    OPEN/CLOSE  'freyberg6.wel_stress_period_data_89.txt'
END PERIOD  89

BEGIN PERIOD  90
    OPEN/CLOSE  'freyberg6.wel_stress_period_data_90.txt'
END PERIOD  90

BEGIN PERIOD  91
    OPEN/CLOSE  'freyberg6.wel_stress_period_data_91.txt'
END PERIOD  91

BEGIN PERIOD  92
    OPEN/CLOSE  'freyberg6.wel_stress_period_data_92.txt'
END PERIOD  92

BEGIN PERIOD  93
    OPEN/CLOSE  'freyberg6.wel_stress_period_data_93.txt'
END PERIOD  93

BEGIN PERIOD  94
    OPEN/CLOSE  'freyberg6.wel_stress_period_data_94.txt'
END PERIOD  94

BEGIN PERIOD  95
    OPEN/CLOSE  'freyberg6.wel_stress_period_data_95.txt'
END PERIOD  95

BEGIN PERIOD  96
    OPEN/CLOSE  'freyberg6.wel_stress_period_data_96.txt'
END PERIOD  96

BEGIN PERIOD  97
    OPEN/CLOSE  'freyberg6.wel_stress_period_data_97.txt'
END PERIOD  97

BEGIN PERIOD  98
    OPEN/CLOSE  'freyberg6.wel_stress_period_data_98.txt'
END PERIOD  98

BEGIN PERIOD  99
    OPEN/CLOSE  'freyberg6.wel_stress_period_data_99.txt'
END PERIOD  99

BEGIN PERIOD  100
    OPEN/CLOSE  'freyberg6.wel_stress_period_data_100.txt'
END PERIOD  100

BEGIN PERIOD  101
    OPEN/CLOSE  'freyberg6.wel_stress_period_data_101.txt'
END PERIOD  101

BEGIN PERIOD  102
    OPEN/CLOSE  'freyberg6.wel_stress_period_data_102.txt'
END PERIOD  102

BEGIN PERIOD  103
    OPEN/CLOSE  'freyberg6.wel_stress_period_data_103.txt'
END PERIOD  103

BEGIN PERIOD  104
    OPEN/CLOSE  'freyberg6.wel_stress_period_data_104.txt'
END PERIOD  104

BEGIN PERIOD  105
    OPEN/CLOSE  'freyberg6.wel_stress_period_data_105.txt'
END PERIOD  105

BEGIN PERIOD  106
    OPEN/CLOSE  'freyberg6.wel_stress_period_data_106.txt'
END PERIOD  106

BEGIN PERIOD  107
    OPEN/CLOSE  'freyberg6.wel_stress_period_data_107.txt'
END PERIOD  107

BEGIN PERIOD  108
    OPEN/CLOSE  'freyberg6.wel_stress_period_data_108.txt'
END PERIOD  108

BEGIN PERIOD  109
    OPEN/CLOSE  'freyberg6.wel_stress_period_data_109.txt'
END PERIOD  109

BEGIN PERIOD  110
    OPEN/CLOSE  'freyberg6.wel_stress_period_data_110.txt'
END PERIOD  110

BEGIN PERIOD  111
    OPEN/CLOSE  'freyberg6.wel_stress_period_data_111.txt'
END PERIOD  111

BEGIN PERIOD  112
    OPEN/CLOSE  'freyberg6.wel_stress_period_data_112.txt'
END PERIOD  112

BEGIN PERIOD  113
    OPEN/CLOSE  'freyberg6.wel_stress_period_data_113.txt'
END PERIOD  113

BEGIN PERIOD  114
    OPEN/CLOSE  'freyberg6.wel_stress_period_data_114.txt'
END PERIOD  114

BEGIN PERIOD  115
    OPEN/CLOSE  'freyberg6.wel_stress_period_data_115.txt'
END PERIOD  115

BEGIN PERIOD  116
    OPEN/CLOSE  'freyberg6.wel_stress_period_data_116.txt'
END PERIOD  116

BEGIN PERIOD  117
    OPEN/CLOSE  'freyberg6.wel_stress_period_data_117.txt'
END PERIOD  117

BEGIN PERIOD  118
    OPEN/CLOSE  'freyberg6.wel_stress_period_data_118.txt'
END PERIOD  118

BEGIN PERIOD  119
    OPEN/CLOSE  'freyberg6.wel_stress_period_data_119.txt'
END PERIOD  119

BEGIN PERIOD  120
    OPEN/CLOSE  'freyberg6.wel_stress_period_data_120.txt'
END PERIOD  120

BEGIN PERIOD  121
    OPEN/CLOSE  'freyberg6.wel_stress_period_data_121.txt'
END PERIOD  121

BEGIN PERIOD  122
    OPEN/CLOSE  'freyberg6.wel_stress_period_data_122.txt'
END PERIOD  122

BEGIN PERIOD  123
    OPEN/CLOSE  'freyberg6.wel_stress_period_data_123.txt'
END PERIOD  123

BEGIN PERIOD  124
    OPEN/CLOSE  'freyberg6.wel_stress_period_data_124.txt'
END PERIOD  124

BEGIN PERIOD  125
    OPEN/CLOSE  'freyberg6.wel_stress_period_data_125.txt'
END PERIOD  125

BEGIN PERIOD  126
    OPEN/CLOSE  'freyberg6.wel_stress_period_data_126.txt'
END PERIOD  126

BEGIN PERIOD  127
    OPEN/CLOSE  'freyberg6.wel_stress_period_data_127.txt'
END PERIOD  127

BEGIN PERIOD  128
    OPEN/CLOSE  'freyberg6.wel_stress_period_data_128.txt'
END PERIOD  128

BEGIN PERIOD  129
    OPEN/CLOSE  'freyberg6.wel_stress_period_data_129.txt'
END PERIOD  129

BEGIN PERIOD  130
    OPEN/CLOSE  'freyberg6.wel_stress_period_data_130.txt'
END PERIOD  130

BEGIN PERIOD  131
    OPEN/CLOSE  'freyberg6.wel_stress_period_data_131.txt'
END PERIOD  131

BEGIN PERIOD  132
    OPEN/CLOSE  'freyberg6.wel_stress_period_data_132.txt'
END PERIOD  132

BEGIN PERIOD  133
    OPEN/CLOSE  'freyberg6.wel_stress_period_data_133.txt'
END PERIOD  133

BEGIN PERIOD  134
    OPEN/CLOSE  'freyberg6.wel_stress_period_data_134.txt'
END PERIOD  134

BEGIN PERIOD  135
    OPEN/CLOSE  'freyberg6.wel_stress_period_data_135.txt'
END PERIOD  135

BEGIN PERIOD  136
    OPEN/CLOSE  'freyberg6.wel_stress_period_data_136.txt'
END PERIOD  136

BEGIN PERIOD  137
    OPEN/CLOSE  'freyberg6.wel_stress_period_data_137.txt'
END PERIOD  137

BEGIN PERIOD  138
    OPEN/CLOSE  'freyberg6.wel_stress_period_data_138.txt'
END PERIOD  138

BEGIN PERIOD  139
    OPEN/CLOSE  'freyberg6.wel_stress_period_data_139.txt'
END PERIOD  139

BEGIN PERIOD  140
    OPEN/CLOSE  'freyberg6.wel_stress_period_data_140.txt'
END PERIOD  140

BEGIN PERIOD  141
    OPEN/CLOSE  'freyberg6.wel_stress_period_data_141.txt'
END PERIOD  141

BEGIN PERIOD  142
    OPEN/CLOSE  'freyberg6.wel_stress_period_data_142.txt'
END PERIOD  142

BEGIN PERIOD  143
    OPEN/CLOSE  'freyberg6.wel_stress_period_data_143.txt'
END PERIOD  143

BEGIN PERIOD  144
    OPEN/CLOSE  'freyberg6.wel_stress_period_data_144.txt'
END PERIOD  144

BEGIN PERIOD  145
    OPEN/CLOSE  'freyberg6.wel_stress_period_data_145.txt'
END PERIOD  145

BEGIN PERIOD  146
    OPEN/CLOSE  'freyberg6.wel_stress_period_data_146.txt'
END PERIOD  146

BEGIN PERIOD  147
    OPEN/CLOSE  'freyberg6.wel_stress_period_data_147.txt'
END PERIOD  147

BEGIN PERIOD  148
    OPEN/CLOSE  'freyberg6.wel_stress_period_data_148.txt'
END PERIOD  148

BEGIN PERIOD  149
    OPEN/CLOSE  'freyberg6.wel_stress_period_data_149.txt'
END PERIOD  149

BEGIN PERIOD  150
    OPEN/CLOSE  'freyberg6.wel_stress_period_data_150.txt'
END PERIOD  150

BEGIN PERIOD  151
    OPEN/CLOSE  'freyberg6.wel_stress_period_data_151.txt'
END PERIOD  151

BEGIN PERIOD  152
    OPEN/CLOSE  'freyberg6.wel_stress_period_data_152.txt'
END PERIOD  152

BEGIN PERIOD  153
    OPEN/CLOSE  'freyberg6.wel_stress_period_data_153.txt'
END PERIOD  153

BEGIN PERIOD  154
    OPEN/CLOSE  'freyberg6.wel_stress_period_data_154.txt'
END PERIOD  154

BEGIN PERIOD  155
    OPEN/CLOSE  'freyberg6.wel_stress_period_data_155.txt'
END PERIOD  155

BEGIN PERIOD  156
    OPEN/CLOSE  'freyberg6.wel_stress_period_data_156.txt'
END PERIOD  156

BEGIN PERIOD  157
    OPEN/CLOSE  'freyberg6.wel_stress_period_data_157.txt'
END PERIOD  157

BEGIN PERIOD  158
    OPEN/CLOSE  'freyberg6.wel_stress_period_data_158.txt'
END PERIOD  158

BEGIN PERIOD  159
    OPEN/CLOSE  'freyberg6.wel_stress_period_data_159.txt'
END PERIOD  159

BEGIN PERIOD  160
    OPEN/CLOSE  'freyberg6.wel_stress_period_data_160.txt'
END PERIOD  160

BEGIN PERIOD  161
    OPEN/CLOSE  'freyberg6.wel_stress_period_data_161.txt'
END PERIOD  161

BEGIN PERIOD  162
    OPEN/CLOSE  'freyberg6.wel_stress_period_data_162.txt'
END PERIOD  162

BEGIN PERIOD  163
    OPEN/CLOSE  'freyberg6.wel_stress_period_data_163.txt'
END PERIOD  163

BEGIN PERIOD  164
    OPEN/CLOSE  'freyberg6.wel_stress_period_data_164.txt'
END PERIOD  164

BEGIN PERIOD  165
    OPEN/CLOSE  'freyberg6.wel_stress_period_data_165.txt'
END PERIOD  165

BEGIN PERIOD  166
    OPEN/CLOSE  'freyberg6.wel_stress_period_data_166.txt'
END PERIOD  166

BEGIN PERIOD  167
    OPEN/CLOSE  'freyberg6.wel_stress_period_data_167.txt'
END PERIOD  167

BEGIN PERIOD  168
    OPEN/CLOSE  'freyberg6.wel_stress_period_data_168.txt'
END PERIOD  168

BEGIN PERIOD  169
    OPEN/CLOSE  'freyberg6.wel_stress_period_data_169.txt'
END PERIOD  169

BEGIN PERIOD  170
    OPEN/CLOSE  'freyberg6.wel_stress_period_data_170.txt'
END PERIOD  170

BEGIN PERIOD  171
    OPEN/CLOSE  'freyberg6.wel_stress_period_data_171.txt'
END PERIOD  171

BEGIN PERIOD  172
    OPEN/CLOSE  'freyberg6.wel_stress_period_data_172.txt'
END PERIOD  172

BEGIN PERIOD  173
    OPEN/CLOSE  'freyberg6.wel_stress_period_data_173.txt'
END PERIOD  173

BEGIN PERIOD  174
    OPEN/CLOSE  'freyberg6.wel_stress_period_data_174.txt'
END PERIOD  174

BEGIN PERIOD  175
    OPEN/CLOSE  'freyberg6.wel_stress_period_data_175.txt'
END PERIOD  175

BEGIN PERIOD  176
    OPEN/CLOSE  'freyberg6.wel_stress_period_data_176.txt'
END PERIOD  176

BEGIN PERIOD  177
    OPEN/CLOSE  'freyberg6.wel_stress_period_data_177.txt'
END PERIOD  177

BEGIN PERIOD  178
    OPEN/CLOSE  'freyberg6.wel_stress_period_data_178.txt'
END PERIOD  178

BEGIN PERIOD  179
    OPEN/CLOSE  'freyberg6.wel_stress_period_data_179.txt'
END PERIOD  179

BEGIN PERIOD  180
    OPEN/CLOSE  'freyberg6.wel_stress_period_data_180.txt'
END PERIOD  180

BEGIN PERIOD  181
    OPEN/CLOSE  'freyberg6.wel_stress_period_data_181.txt'
END PERIOD  181

BEGIN PERIOD  182
    OPEN/CLOSE  'freyberg6.wel_stress_period_data_182.txt'
END PERIOD  182

BEGIN PERIOD  183
    OPEN/CLOSE  'freyberg6.wel_stress_period_data_183.txt'
END PERIOD  183

BEGIN PERIOD  184
    OPEN/CLOSE  'freyberg6.wel_stress_period_data_184.txt'
END PERIOD  184

BEGIN PERIOD  185
    OPEN/CLOSE  'freyberg6.wel_stress_period_data_185.txt'
END PERIOD  185

BEGIN PERIOD  186
    OPEN/CLOSE  'freyberg6.wel_stress_period_data_186.txt'
END PERIOD  186

BEGIN PERIOD  187
    OPEN/CLOSE  'freyberg6.wel_stress_period_data_187.txt'
END PERIOD  187

BEGIN PERIOD  188
    OPEN/CLOSE  'freyberg6.wel_stress_period_data_188.txt'
END PERIOD  188

BEGIN PERIOD  189
    OPEN/CLOSE  'freyberg6.wel_stress_period_data_189.txt'
END PERIOD  189

BEGIN PERIOD  190
    OPEN/CLOSE  'freyberg6.wel_stress_period_data_190.txt'
END PERIOD  190

BEGIN PERIOD  191
    OPEN/CLOSE  'freyberg6.wel_stress_period_data_191.txt'
END PERIOD  191

BEGIN PERIOD  192
    OPEN/CLOSE  'freyberg6.wel_stress_period_data_192.txt'
END PERIOD  192

BEGIN PERIOD  193
    OPEN/CLOSE  'freyberg6.wel_stress_period_data_193.txt'
END PERIOD  193

BEGIN PERIOD  194
    OPEN/CLOSE  'freyberg6.wel_stress_period_data_194.txt'
END PERIOD  194

BEGIN PERIOD  195
    OPEN/CLOSE  'freyberg6.wel_stress_period_data_195.txt'
END PERIOD  195

BEGIN PERIOD  196
    OPEN/CLOSE  'freyberg6.wel_stress_period_data_196.txt'
END PERIOD  196

BEGIN PERIOD  197
    OPEN/CLOSE  'freyberg6.wel_stress_period_data_197.txt'
END PERIOD  197

BEGIN PERIOD  198
    OPEN/CLOSE  'freyberg6.wel_stress_period_data_198.txt'
END PERIOD  198

BEGIN PERIOD  199
    OPEN/CLOSE  'freyberg6.wel_stress_period_data_199.txt'
END PERIOD  199

BEGIN PERIOD  200
    OPEN/CLOSE  'freyberg6.wel_stress_period_data_200.txt'
END PERIOD  200

BEGIN PERIOD  201
    OPEN/CLOSE  'freyberg6.wel_stress_period_data_201.txt'
END PERIOD  201

BEGIN PERIOD  202
    OPEN/CLOSE  'freyberg6.wel_stress_period_data_202.txt'
END PERIOD  202

BEGIN PERIOD  203
    OPEN/CLOSE  'freyberg6.wel_stress_period_data_203.txt'
END PERIOD  203

BEGIN PERIOD  204
    OPEN/CLOSE  'freyberg6.wel_stress_period_data_204.txt'
END PERIOD  204

BEGIN PERIOD  205
    OPEN/CLOSE  'freyberg6.wel_stress_period_data_205.txt'
END PERIOD  205

BEGIN PERIOD  206
    OPEN/CLOSE  'freyberg6.wel_stress_period_data_206.txt'
END PERIOD  206

BEGIN PERIOD  207
    OPEN/CLOSE  'freyberg6.wel_stress_period_data_207.txt'
END PERIOD  207

BEGIN PERIOD  208
    OPEN/CLOSE  'freyberg6.wel_stress_period_data_208.txt'
END PERIOD  208

BEGIN PERIOD  209
    OPEN/CLOSE  'freyberg6.wel_stress_period_data_209.txt'
END PERIOD  209

BEGIN PERIOD  210
    OPEN/CLOSE  'freyberg6.wel_stress_period_data_210.txt'
END PERIOD  210

BEGIN PERIOD  211
    OPEN/CLOSE  'freyberg6.wel_stress_period_data_211.txt'
END PERIOD  211

BEGIN PERIOD  212
    OPEN/CLOSE  'freyberg6.wel_stress_period_data_212.txt'
END PERIOD  212

BEGIN PERIOD  213
    OPEN/CLOSE  'freyberg6.wel_stress_period_data_213.txt'
END PERIOD  213

BEGIN PERIOD  214
    OPEN/CLOSE  'freyberg6.wel_stress_period_data_214.txt'
END PERIOD  214

BEGIN PERIOD  215
    OPEN/CLOSE  'freyberg6.wel_stress_period_data_215.txt'
END PERIOD  215

BEGIN PERIOD  216
    OPEN/CLOSE  'freyberg6.wel_stress_period_data_216.txt'
END PERIOD  216

BEGIN PERIOD  217
    OPEN/CLOSE  'freyberg6.wel_stress_period_data_217.txt'
END PERIOD  217

BEGIN PERIOD  218
    OPEN/CLOSE  'freyberg6.wel_stress_period_data_218.txt'
END PERIOD  218

BEGIN PERIOD  219
    OPEN/CLOSE  'freyberg6.wel_stress_period_data_219.txt'
END PERIOD  219

BEGIN PERIOD  220
    OPEN/CLOSE  'freyberg6.wel_stress_period_data_220.txt'
END PERIOD  220

BEGIN PERIOD  221
    OPEN/CLOSE  'freyberg6.wel_stress_period_data_221.txt'
END PERIOD  221

BEGIN PERIOD  222
    OPEN/CLOSE  'freyberg6.wel_stress_period_data_222.txt'
END PERIOD  222

BEGIN PERIOD  223
    OPEN/CLOSE  'freyberg6.wel_stress_period_data_223.txt'
END PERIOD  223

BEGIN PERIOD  224
    OPEN/CLOSE  'freyberg6.wel_stress_period_data_224.txt'
END PERIOD  224

BEGIN PERIOD  225
    OPEN/CLOSE  'freyberg6.wel_stress_period_data_225.txt'
END PERIOD  225

BEGIN PERIOD  226
    OPEN/CLOSE  'freyberg6.wel_stress_period_data_226.txt'
END PERIOD  226

BEGIN PERIOD  227
    OPEN/CLOSE  'freyberg6.wel_stress_period_data_227.txt'
END PERIOD  227

BEGIN PERIOD  228
    OPEN/CLOSE  'freyberg6.wel_stress_period_data_228.txt'
END PERIOD  228

BEGIN PERIOD  229
    OPEN/CLOSE  'freyberg6.wel_stress_period_data_229.txt'
END PERIOD  229

BEGIN PERIOD  230
    OPEN/CLOSE  'freyberg6.wel_stress_period_data_230.txt'
END PERIOD  230

BEGIN PERIOD  231
    OPEN/CLOSE  'freyberg6.wel_stress_period_data_231.txt'
END PERIOD  231

BEGIN PERIOD  232
    OPEN/CLOSE  'freyberg6.wel_stress_period_data_232.txt'
END PERIOD  232

BEGIN PERIOD  233
    OPEN/CLOSE  'freyberg6.wel_stress_period_data_233.txt'
END PERIOD  233

BEGIN PERIOD  234
    OPEN/CLOSE  'freyberg6.wel_stress_period_data_234.txt'
END PERIOD  234

BEGIN PERIOD  235
    OPEN/CLOSE  'freyberg6.wel_stress_period_data_235.txt'
END PERIOD  235

BEGIN PERIOD  236
    OPEN/CLOSE  'freyberg6.wel_stress_period_data_236.txt'
END PERIOD  236

BEGIN PERIOD  237
    OPEN/CLOSE  'freyberg6.wel_stress_period_data_237.txt'
END PERIOD  237

BEGIN PERIOD  238
    OPEN/CLOSE  'freyberg6.wel_stress_period_data_238.txt'
END PERIOD  238

BEGIN PERIOD  239
    OPEN/CLOSE  'freyberg6.wel_stress_period_data_239.txt'
END PERIOD  239

BEGIN PERIOD  240
    OPEN/CLOSE  'freyberg6.wel_stress_period_data_240.txt'
END PERIOD  240

BEGIN PERIOD  241
    OPEN/CLOSE  'freyberg6.wel_stress_period_data_241.txt'
END PERIOD  241

BEGIN PERIOD  242
    OPEN/CLOSE  'freyberg6.wel_stress_period_data_242.txt'
END PERIOD  242

BEGIN PERIOD  243
    OPEN/CLOSE  'freyberg6.wel_stress_period_data_243.txt'
END PERIOD  243

BEGIN PERIOD  244
    OPEN/CLOSE  'freyberg6.wel_stress_period_data_244.txt'
END PERIOD  244

BEGIN PERIOD  245
    OPEN/CLOSE  'freyberg6.wel_stress_period_data_245.txt'
END PERIOD  245

BEGIN PERIOD  246
    OPEN/CLOSE  'freyberg6.wel_stress_period_data_246.txt'
END PERIOD  246

BEGIN PERIOD  247
    OPEN/CLOSE  'freyberg6.wel_stress_period_data_247.txt'
END PERIOD  247

BEGIN PERIOD  248
    OPEN/CLOSE  'freyberg6.wel_stress_period_data_248.txt'
END PERIOD  248

BEGIN PERIOD  249
    OPEN/CLOSE  'freyberg6.wel_stress_period_data_249.txt'
END PERIOD  249

BEGIN PERIOD  250
    OPEN/CLOSE  'freyberg6.wel_stress_period_data_250.txt'
END PERIOD  250

BEGIN PERIOD  251
    OPEN/CLOSE  'freyberg6.wel_stress_period_data_251.txt'
END PERIOD  251

BEGIN PERIOD  252
    OPEN/CLOSE  'freyberg6.wel_stress_period_data_252.txt'
END PERIOD  252

BEGIN PERIOD  253
    OPEN/CLOSE  'freyberg6.wel_stress_period_data_253.txt'
END PERIOD  253

BEGIN PERIOD  254
    OPEN/CLOSE  'freyberg6.wel_stress_period_data_254.txt'
END PERIOD  254

BEGIN PERIOD  255
    OPEN/CLOSE  'freyberg6.wel_stress_period_data_255.txt'
END PERIOD  255

BEGIN PERIOD  256
    OPEN/CLOSE  'freyberg6.wel_stress_period_data_256.txt'
END PERIOD  256

BEGIN PERIOD  257
    OPEN/CLOSE  'freyberg6.wel_stress_period_data_257.txt'
END PERIOD  257

BEGIN PERIOD  258
    OPEN/CLOSE  'freyberg6.wel_stress_period_data_258.txt'
END PERIOD  258

BEGIN PERIOD  259
    OPEN/CLOSE  'freyberg6.wel_stress_period_data_259.txt'
END PERIOD  259

BEGIN PERIOD  260
    OPEN/CLOSE  'freyberg6.wel_stress_period_data_260.txt'
END PERIOD  260

BEGIN PERIOD  261
    OPEN/CLOSE  'freyberg6.wel_stress_period_data_261.txt'
END PERIOD  261

BEGIN PERIOD  262
    OPEN/CLOSE  'freyberg6.wel_stress_period_data_262.txt'
END PERIOD  262

BEGIN PERIOD  263
    OPEN/CLOSE  'freyberg6.wel_stress_period_data_263.txt'
END PERIOD  263

BEGIN PERIOD  264
    OPEN/CLOSE  'freyberg6.wel_stress_period_data_264.txt'
END PERIOD  264

BEGIN PERIOD  265
    OPEN/CLOSE  'freyberg6.wel_stress_period_data_265.txt'
END PERIOD  265

BEGIN PERIOD  266
    OPEN/CLOSE  'freyberg6.wel_stress_period_data_266.txt'
END PERIOD  266

BEGIN PERIOD  267
    OPEN/CLOSE  'freyberg6.wel_stress_period_data_267.txt'
END PERIOD  267

BEGIN PERIOD  268
    OPEN/CLOSE  'freyberg6.wel_stress_period_data_268.txt'
END PERIOD  268

BEGIN PERIOD  269
    OPEN/CLOSE  'freyberg6.wel_stress_period_data_269.txt'
END PERIOD  269

BEGIN PERIOD  270
    OPEN/CLOSE  'freyberg6.wel_stress_period_data_270.txt'
END PERIOD  270

BEGIN PERIOD  271
    OPEN/CLOSE  'freyberg6.wel_stress_period_data_271.txt'
END PERIOD  271

BEGIN PERIOD  272
    OPEN/CLOSE  'freyberg6.wel_stress_period_data_272.txt'
END PERIOD  272

BEGIN PERIOD  273
    OPEN/CLOSE  'freyberg6.wel_stress_period_data_273.txt'
END PERIOD  273

BEGIN PERIOD  274
    OPEN/CLOSE  'freyberg6.wel_stress_period_data_274.txt'
END PERIOD  274

BEGIN PERIOD  275
    OPEN/CLOSE  'freyberg6.wel_stress_period_data_275.txt'
END PERIOD  275

BEGIN PERIOD  276
    OPEN/CLOSE  'freyberg6.wel_stress_period_data_276.txt'
END PERIOD  276

BEGIN PERIOD  277
    OPEN/CLOSE  'freyberg6.wel_stress_period_data_277.txt'
END PERIOD  277

BEGIN PERIOD  278
    OPEN/CLOSE  'freyberg6.wel_stress_period_data_278.txt'
END PERIOD  278

BEGIN PERIOD  279
    OPEN/CLOSE  'freyberg6.wel_stress_period_data_279.txt'
END PERIOD  279

BEGIN PERIOD  280
    OPEN/CLOSE  'freyberg6.wel_stress_period_data_280.txt'
END PERIOD  280

BEGIN PERIOD  281
    OPEN/CLOSE  'freyberg6.wel_stress_period_data_281.txt'
END PERIOD  281

BEGIN PERIOD  282
    OPEN/CLOSE  'freyberg6.wel_stress_period_data_282.txt'
END PERIOD  282

BEGIN PERIOD  283
    OPEN/CLOSE  'freyberg6.wel_stress_period_data_283.txt'
END PERIOD  283

BEGIN PERIOD  284
    OPEN/CLOSE  'freyberg6.wel_stress_period_data_284.txt'
END PERIOD  284

BEGIN PERIOD  285
    OPEN/CLOSE  'freyberg6.wel_stress_period_data_285.txt'
END PERIOD  285

BEGIN PERIOD  286
    OPEN/CLOSE  'freyberg6.wel_stress_period_data_286.txt'
END PERIOD  286

BEGIN PERIOD  287
    OPEN/CLOSE  'freyberg6.wel_stress_period_data_287.txt'
END PERIOD  287

BEGIN PERIOD  288
    OPEN/CLOSE  'freyberg6.wel_stress_period_data_288.txt'
END PERIOD  288

BEGIN PERIOD  289
    OPEN/CLOSE  'freyberg6.wel_stress_period_data_289.txt'
END PERIOD  289

BEGIN PERIOD  290
    OPEN/CLOSE  'freyberg6.wel_stress_period_data_290.txt'
END PERIOD  290

BEGIN PERIOD  291
    OPEN/CLOSE  'freyberg6.wel_stress_period_data_291.txt'
END PERIOD  291

BEGIN PERIOD  292
    OPEN/CLOSE  'freyberg6.wel_stress_period_data_292.txt'
END PERIOD  292

BEGIN PERIOD  293
    OPEN/CLOSE  'freyberg6.wel_stress_period_data_293.txt'
END PERIOD  293

BEGIN PERIOD  294
    OPEN/CLOSE  'freyberg6.wel_stress_period_data_294.txt'
END PERIOD  294

BEGIN PERIOD  295
    OPEN/CLOSE  'freyberg6.wel_stress_period_data_295.txt'
END PERIOD  295

BEGIN PERIOD  296
    OPEN/CLOSE  'freyberg6.wel_stress_period_data_296.txt'
END PERIOD  296

BEGIN PERIOD  297
    OPEN/CLOSE  'freyberg6.wel_stress_period_data_297.txt'
END PERIOD  297

BEGIN PERIOD  298
    OPEN/CLOSE  'freyberg6.wel_stress_period_data_298.txt'
END PERIOD  298

BEGIN PERIOD  299
    OPEN/CLOSE  'freyberg6.wel_stress_period_data_299.txt'
END PERIOD  299

BEGIN PERIOD  300
    OPEN/CLOSE  'freyberg6.wel_stress_period_data_300.txt'
END PERIOD  300

BEGIN PERIOD  301
    OPEN/CLOSE  'freyberg6.wel_stress_period_data_301.txt'
END PERIOD  301

BEGIN PERIOD  302
    OPEN/CLOSE  'freyberg6.wel_stress_period_data_302.txt'
END PERIOD  302

BEGIN PERIOD  303
    OPEN/CLOSE  'freyberg6.wel_stress_period_data_303.txt'
END PERIOD  303

BEGIN PERIOD  304
    OPEN/CLOSE  'freyberg6.wel_stress_period_data_304.txt'
END PERIOD  304

BEGIN PERIOD  305
    OPEN/CLOSE  'freyberg6.wel_stress_period_data_305.txt'
END PERIOD  305

BEGIN PERIOD  306
    OPEN/CLOSE  'freyberg6.wel_stress_period_data_306.txt'
END PERIOD  306

BEGIN PERIOD  307
    OPEN/CLOSE  'freyberg6.wel_stress_period_data_307.txt'
END PERIOD  307

BEGIN PERIOD  308
    OPEN/CLOSE  'freyberg6.wel_stress_period_data_308.txt'
END PERIOD  308

BEGIN PERIOD  309
    OPEN/CLOSE  'freyberg6.wel_stress_period_data_309.txt'
END PERIOD  309

BEGIN PERIOD  310
    OPEN/CLOSE  'freyberg6.wel_stress_period_data_310.txt'
END PERIOD  310

BEGIN PERIOD  311
    OPEN/CLOSE  'freyberg6.wel_stress_period_data_311.txt'
END PERIOD  311

BEGIN PERIOD  312
    OPEN/CLOSE  'freyberg6.wel_stress_period_data_312.txt'
END PERIOD  312

BEGIN PERIOD  313
    OPEN/CLOSE  'freyberg6.wel_stress_period_data_313.txt'
END PERIOD  313

BEGIN PERIOD  314
    OPEN/CLOSE  'freyberg6.wel_stress_period_data_314.txt'
END PERIOD  314

BEGIN PERIOD  315
    OPEN/CLOSE  'freyberg6.wel_stress_period_data_315.txt'
END PERIOD  315

BEGIN PERIOD  316
    OPEN/CLOSE  'freyberg6.wel_stress_period_data_316.txt'
END PERIOD  316

BEGIN PERIOD  317
    OPEN/CLOSE  'freyberg6.wel_stress_period_data_317.txt'
END PERIOD  317

BEGIN PERIOD  318
    OPEN/CLOSE  'freyberg6.wel_stress_period_data_318.txt'
END PERIOD  318

BEGIN PERIOD  319
    OPEN/CLOSE  'freyberg6.wel_stress_period_data_319.txt'
END PERIOD  319

BEGIN PERIOD  320
    OPEN/CLOSE  'freyberg6.wel_stress_period_data_320.txt'
END PERIOD  320

BEGIN PERIOD  321
    OPEN/CLOSE  'freyberg6.wel_stress_period_data_321.txt'
END PERIOD  321

BEGIN PERIOD  322