BEGIN Options
  READASARRAYS
END Options

BEGIN PERIOD  1
  recharge
    OPEN/CLOSE  'freyberg6.rch_recharge_1.txt'  FACTOR  1.0
END PERIOD  1

BEGIN PERIOD  2
  recharge
    OPEN/CLOSE  'freyberg6.rch_recharge_2.txt'  FACTOR  1.0
END PERIOD  2

BEGIN PERIOD  3
  recharge
    OPEN/CLOSE  'freyberg6.rch_recharge_3.txt'  FACTOR  1.0
END PERIOD  3

BEGIN PERIOD  4
  recharge
    OPEN/CLOSE  'freyberg6.rch_recharge_4.txt'  FACTOR  1.0
END PERIOD  4

BEGIN PERIOD  5
  recharge
    OPEN/CLOSE  'freyberg6.rch_recharge_5.txt'  FACTOR  1.0
END PERIOD  5

BEGIN PERIOD  6
  recharge
    OPEN/CLOSE  'freyberg6.rch_recharge_6.txt'  FACTOR  1.0
END PERIOD  6

BEGIN PERIOD  7
  recharge
    OPEN/CLOSE  'freyberg6.rch_recharge_7.txt'  FACTOR  1.0
END PERIOD  7

BEGIN PERIOD  8
  recharge
    OPEN/CLOSE  'freyberg6.rch_recharge_8.txt'  FACTOR  1.0
END PERIOD  8

BEGIN PERIOD  9
  recharge
    OPEN/CLOSE  'freyberg6.rch_recharge_9.txt'  FACTOR  1.0
END PERIOD  9

BEGIN PERIOD  10
  recharge
    OPEN/CLOSE  'freyberg6.rch_recharge_10.txt'  FACTOR  1.0
END PERIOD  10

BEGIN PERIOD  11
  recharge
    OPEN/CLOSE  'freyberg6.rch_recharge_11.txt'  FACTOR  1.0
END PERIOD  11

BEGIN PERIOD  12
  recharge
    OPEN/CLOSE  'freyberg6.rch_recharge_12.txt'  FACTOR  1.0
END PERIOD  12

BEGIN PERIOD  13
  recharge
    OPEN/CLOSE  'freyberg6.rch_recharge_13.txt'  FACTOR  1.0
END PERIOD  13

BEGIN PERIOD  14
  recharge
    OPEN/CLOSE  'freyberg6.rch_recharge_14.txt'  FACTOR  1.0
END PERIOD  14

BEGIN PERIOD  15
  recharge
    OPEN/CLOSE  'freyberg6.rch_recharge_15.txt'  FACTOR  1.0
END PERIOD  15

BEGIN PERIOD  16
  recharge
    OPEN/CLOSE  'freyberg6.rch_recharge_16.txt'  FACTOR  1.0
END PERIOD  16

BEGIN PERIOD  17
  recharge
    OPEN/CLOSE  'freyberg6.rch_recharge_17.txt'  FACTOR  1.0
END PERIOD  17

BEGIN PERIOD  18
  recharge
    OPEN/CLOSE  'freyberg6.rch_recharge_18.txt'  FACTOR  1.0
END PERIOD  18

BEGIN PERIOD  19
  recharge
    OPEN/CLOSE  'freyberg6.rch_recharge_19.txt'  FACTOR  1.0
END PERIOD  19

BEGIN PERIOD  20
  recharge
    OPEN/CLOSE  'freyberg6.rch_recharge_20.txt'  FACTOR  1.0
END PERIOD  20

BEGIN PERIOD  21
  recharge
    OPEN/CLOSE  'freyberg6.rch_recharge_21.txt'  FACTOR  1.0
END PERIOD  21

BEGIN PERIOD  22
  recharge
    OPEN/CLOSE  'freyberg6.rch_recharge_22.txt'  FACTOR  1.0
END PERIOD  22

BEGIN PERIOD  23
  recharge
    OPEN/CLOSE  'freyberg6.rch_recharge_23.txt'  FACTOR  1.0
END PERIOD  23

BEGIN PERIOD  24
  recharge
    OPEN/CLOSE  'freyberg6.rch_recharge_24.txt'  FACTOR  1.0
END PERIOD  24

BEGIN PERIOD  25
  recharge
    OPEN/CLOSE  'freyberg6.rch_recharge_25.txt'  FACTOR  1.0
END PERIOD  25

BEGIN PERIOD  26
  recharge
    OPEN/CLOSE  'freyberg6.rch_recharge_26.txt'  FACTOR  1.0
END PERIOD  26

BEGIN PERIOD  27
  recharge
    OPEN/CLOSE  'freyberg6.rch_recharge_27.txt'  FACTOR  1.0
END PERIOD  27

BEGIN PERIOD  28
  recharge
    OPEN/CLOSE  'freyberg6.rch_recharge_28.txt'  FACTOR  1.0
END PERIOD  28

BEGIN PERIOD  29
  recharge
    OPEN/CLOSE  'freyberg6.rch_recharge_29.txt'  FACTOR  1.0
END PERIOD  29

BEGIN PERIOD  30
  recharge
    OPEN/CLOSE  'freyberg6.rch_recharge_30.txt'  FACTOR  1.0
END PERIOD  30

BEGIN PERIOD  31
  recharge
    OPEN/CLOSE  'freyberg6.rch_recharge_31.txt'  FACTOR  1.0
END PERIOD  31

BEGIN PERIOD  32
  recharge
    OPEN/CLOSE  'freyberg6.rch_recharge_32.txt'  FACTOR  1.0
END PERIOD  32

BEGIN PERIOD  33
  recharge
    OPEN/CLOSE  'freyberg6.rch_recharge_33.txt'  FACTOR  1.0
END PERIOD  33

BEGIN PERIOD  34
  recharge
    OPEN/CLOSE  'freyberg6.rch_recharge_34.txt'  FACTOR  1.0
END PERIOD  34

BEGIN PERIOD  35
  recharge
    OPEN/CLOSE  'freyberg6.rch_recharge_35.txt'  FACTOR  1.0
END PERIOD  35

BEGIN PERIOD  36
  recharge
    OPEN/CLOSE  'freyberg6.rch_recharge_36.txt'  FACTOR  1.0
END PERIOD  36

BEGIN PERIOD  37
  recharge
    OPEN/CLOSE  'freyberg6.rch_recharge_37.txt'  FACTOR  1.0
END PERIOD  37

BEGIN PERIOD  38
  recharge
    OPEN/CLOSE  'freyberg6.rch_recharge_38.txt'  FACTOR  1.0
END PERIOD  38

BEGIN PERIOD  39
  recharge
    OPEN/CLOSE  'freyberg6.rch_recharge_39.txt'  FACTOR  1.0
END PERIOD  39

BEGIN PERIOD  40
  recharge
    OPEN/CLOSE  'freyberg6.rch_recharge_40.txt'  FACTOR  1.0
END PERIOD  40

BEGIN PERIOD  41
  recharge
    OPEN/CLOSE  'freyberg6.rch_recharge_41.txt'  FACTOR  1.0
END PERIOD  41

BEGIN PERIOD  42
  recharge
    OPEN/CLOSE  'freyberg6.rch_recharge_42.txt'  FACTOR  1.0
END PERIOD  42

BEGIN PERIOD  43
  recharge
    OPEN/CLOSE  'freyberg6.rch_recharge_43.txt'  FACTOR  1.0
END PERIOD  43

BEGIN PERIOD  44
  recharge
    OPEN/CLOSE  'freyberg6.rch_recharge_44.txt'  FACTOR  1.0
END PERIOD  44

BEGIN PERIOD  45
  recharge
    OPEN/CLOSE  'freyberg6.rch_recharge_45.txt'  FACTOR  1.0
END PERIOD  45

BEGIN PERIOD  46
  recharge
    OPEN/CLOSE  'freyberg6.rch_recharge_46.txt'  FACTOR  1.0
END PERIOD  46

BEGIN PERIOD  47
  recharge
    OPEN/CLOSE  'freyberg6.rch_recharge_47.txt'  FACTOR  1.0
END PERIOD  47

BEGIN PERIOD  48
  recharge
    OPEN/CLOSE  'freyberg6.rch_recharge_48.txt'  FACTOR  1.0
END PERIOD  48

BEGIN PERIOD  49
  recharge
    OPEN/CLOSE  'freyberg6.rch_recharge_49.txt'  FACTOR  1.0
END PERIOD  49

BEGIN PERIOD  50
  recharge
    OPEN/CLOSE  'freyberg6.rch_recharge_50.txt'  FACTOR  1.0
END PERIOD  50

BEGIN PERIOD  51
  recharge
    OPEN/CLOSE  'freyberg6.rch_recharge_51.txt'  FACTOR  1.0
END PERIOD  51

BEGIN PERIOD  52
  recharge
    OPEN/CLOSE  'freyberg6.rch_recharge_52.txt'  FACTOR  1.0
END PERIOD  52

BEGIN PERIOD  53
  recharge
    OPEN/CLOSE  'freyberg6.rch_recharge_53.txt'  FACTOR  1.0
END PERIOD  53

BEGIN PERIOD  54
  recharge
    OPEN/CLOSE  'freyberg6.rch_recharge_54.txt'  FACTOR  1.0
END PERIOD  54

BEGIN PERIOD  55
  recharge
    OPEN/CLOSE  'freyberg6.rch_recharge_55.txt'  FACTOR  1.0
END PERIOD  55

BEGIN PERIOD  56
  recharge
    OPEN/CLOSE  'freyberg6.rch_recharge_56.txt'  FACTOR  1.0
END PERIOD  56

BEGIN PERIOD  57
  recharge
    OPEN/CLOSE  'freyberg6.rch_recharge_57.txt'  FACTOR  1.0
END PERIOD  57

BEGIN PERIOD  58
  recharge
    OPEN/CLOSE  'freyberg6.rch_recharge_58.txt'  FACTOR  1.0
END PERIOD  58

BEGIN PERIOD  59
  recharge
    OPEN/CLOSE  'freyberg6.rch_recharge_59.txt'  FACTOR  1.0
END PERIOD  59

BEGIN PERIOD  60
  recharge
    OPEN/CLOSE  'freyberg6.rch_recharge_60.txt'  FACTOR  1.0
END PERIOD  60

BEGIN PERIOD  61
  recharge
    OPEN/CLOSE  'freyberg6.rch_recharge_61.txt'  FACTOR  1.0
END PERIOD  61

BEGIN PERIOD  62
  recharge
    OPEN/CLOSE  'freyberg6.rch_recharge_62.txt'  FACTOR  1.0
END PERIOD  62

BEGIN PERIOD  63
  recharge
    OPEN/CLOSE  'freyberg6.rch_recharge_63.txt'  FACTOR  1.0
END PERIOD  63

BEGIN PERIOD  64
  recharge
    OPEN/CLOSE  'freyberg6.rch_recharge_64.txt'  FACTOR  1.0
END PERIOD  64

BEGIN PERIOD  65
  recharge
    OPEN/CLOSE  'freyberg6.rch_recharge_65.txt'  FACTOR  1.0
END PERIOD  65

BEGIN PERIOD  66
  recharge
    OPEN/CLOSE  'freyberg6.rch_recharge_66.txt'  FACTOR  1.0
END PERIOD  66

BEGIN PERIOD  67
  recharge
    OPEN/CLOSE  'freyberg6.rch_recharge_67.txt'  FACTOR  1.0
END PERIOD  67

BEGIN PERIOD  68
  recharge
    OPEN/CLOSE  'freyberg6.rch_recharge_68.txt'  FACTOR  1.0
END PERIOD  68

BEGIN PERIOD  69
  recharge
    OPEN/CLOSE  'freyberg6.rch_recharge_69.txt'  FACTOR  1.0
END PERIOD  69

BEGIN PERIOD  70
  recharge
    OPEN/CLOSE  'freyberg6.rch_recharge_70.txt'  FACTOR  1.0
END PERIOD  70

BEGIN PERIOD  71
  recharge
    OPEN/CLOSE  'freyberg6.rch_recharge_71.txt'  FACTOR  1.0
END PERIOD  71

BEGIN PERIOD  72
  recharge
    OPEN/CLOSE  'freyberg6.rch_recharge_72.txt'  FACTOR  1.0
END PERIOD  72

BEGIN PERIOD  73
  recharge
    OPEN/CLOSE  'freyberg6.rch_recharge_73.txt'  FACTOR  1.0
END PERIOD  73

BEGIN PERIOD  74
  recharge
    OPEN/CLOSE  'freyberg6.rch_recharge_74.txt'  FACTOR  1.0
END PERIOD  74

BEGIN PERIOD  75
  recharge
    OPEN/CLOSE  'freyberg6.rch_recharge_75.txt'  FACTOR  1.0
END PERIOD  75

BEGIN PERIOD  76
  recharge
    OPEN/CLOSE  'freyberg6.rch_recharge_76.txt'  FACTOR  1.0
END PERIOD  76

BEGIN PERIOD  77
  recharge
    OPEN/CLOSE  'freyberg6.rch_recharge_77.txt'  FACTOR  1.0
END PERIOD  77

BEGIN PERIOD  78
  recharge
    OPEN/CLOSE  'freyberg6.rch_recharge_78.txt'  FACTOR  1.0
END PERIOD  78

BEGIN PERIOD  79
  recharge
    OPEN/CLOSE  'freyberg6.rch_recharge_79.txt'  FACTOR  1.0
END PERIOD  79

BEGIN PERIOD  80
  recharge
    OPEN/CLOSE  'freyberg6.rch_recharge_80.txt'  FACTOR  1.0
END PERIOD  80

BEGIN PERIOD  81
  recharge
    OPEN/CLOSE  'freyberg6.rch_recharge_81.txt'  FACTOR  1.0
END PERIOD  81

BEGIN PERIOD  82
  recharge
    OPEN/CLOSE  'freyberg6.rch_recharge_82.txt'  FACTOR  1.0
END PERIOD  82

BEGIN PERIOD  83
  recharge
    OPEN/CLOSE  'freyberg6.rch_recharge_83.txt'  FACTOR  1.0
END PERIOD  83

BEGIN PERIOD  84
  recharge
    OPEN/CLOSE  'freyberg6.rch_recharge_84.txt'  FACTOR  1.0
END PERIOD  84

BEGIN PERIOD  85
  recharge
    OPEN/CLOSE  'freyberg6.rch_recharge_85.txt'  FACTOR  1.0
END PERIOD  85

BEGIN PERIOD  86
  recharge
    OPEN/CLOSE  'freyberg6.rch_recharge_86.txt'  FACTOR  1.0
END PERIOD  86

BEGIN PERIOD  87
  recharge
    OPEN/CLOSE  'freyberg6.rch_recharge_87.txt'  FACTOR  1.0
END PERIOD  87

BEGIN PERIOD  88
  recharge
    OPEN/CLOSE  'freyberg6.rch_recharge_88.txt'  FACTOR  1.0
END PERIOD  88

BEGIN PERIOD  89
  recharge
    OPEN/CLOSE  'freyberg6.rch_recharge_89.txt'  FACTOR  1.0
END PERIOD  89

BEGIN PERIOD  90
  recharge
    OPEN/CLOSE  'freyberg6.rch_recharge_90.txt'  FACTOR  1.0
END PERIOD  90

BEGIN PERIOD  91
  recharge
    OPEN/CLOSE  'freyberg6.rch_recharge_91.txt'  FACTOR  1.0
END PERIOD  91

BEGIN PERIOD  92
  recharge
    OPEN/CLOSE  'freyberg6.rch_recharge_92.txt'  FACTOR  1.0
END PERIOD  92

BEGIN PERIOD  93
  recharge
    OPEN/CLOSE  'freyberg6.rch_recharge_93.txt'  FACTOR  1.0
END PERIOD  93

BEGIN PERIOD  94
  recharge
    OPEN/CLOSE  'freyberg6.rch_recharge_94.txt'  FACTOR  1.0
END PERIOD  94

BEGIN PERIOD  95
  recharge
    OPEN/CLOSE  'freyberg6.rch_recharge_95.txt'  FACTOR  1.0
END PERIOD  95

BEGIN PERIOD  96
  recharge
    OPEN/CLOSE  'freyberg6.rch_recharge_96.txt'  FACTOR  1.0
END PERIOD  96

BEGIN PERIOD  97
  recharge
    OPEN/CLOSE  'freyberg6.rch_recharge_97.txt'  FACTOR  1.0
END PERIOD  97

BEGIN PERIOD  98
  recharge
    OPEN/CLOSE  'freyberg6.rch_recharge_98.txt'  FACTOR  1.0
END PERIOD  98

BEGIN PERIOD  99
  recharge
    OPEN/CLOSE  'freyberg6.rch_recharge_99.txt'  FACTOR  1.0
END PERIOD  99

BEGIN PERIOD  100
  recharge
    OPEN/CLOSE  'freyberg6.rch_recharge_100.txt'  FACTOR  1.0
END PERIOD  100

BEGIN PERIOD  101
  recharge
    OPEN/CLOSE  'freyberg6.rch_recharge_101.txt'  FACTOR  1.0
END PERIOD  101

BEGIN PERIOD  102
  recharge
    OPEN/CLOSE  'freyberg6.rch_recharge_102.txt'  FACTOR  1.0
END PERIOD  102

BEGIN PERIOD  103
  recharge
    OPEN/CLOSE  'freyberg6.rch_recharge_103.txt'  FACTOR  1.0
END PERIOD  103

BEGIN PERIOD  104
  recharge
    OPEN/CLOSE  'freyberg6.rch_recharge_104.txt'  FACTOR  1.0
END PERIOD  104

BEGIN PERIOD  105
  recharge
    OPEN/CLOSE  'freyberg6.rch_recharge_105.txt'  FACTOR  1.0
END PERIOD  105

BEGIN PERIOD  106
  recharge
    OPEN/CLOSE  'freyberg6.rch_recharge_106.txt'  FACTOR  1.0
END PERIOD  106

BEGIN PERIOD  107
  recharge
    OPEN/CLOSE  'freyberg6.rch_recharge_107.txt'  FACTOR  1.0
END PERIOD  107

BEGIN PERIOD  108
  recharge
    OPEN/CLOSE  'freyberg6.rch_recharge_108.txt'  FACTOR  1.0
END PERIOD  108

BEGIN PERIOD  109
  recharge
    OPEN/CLOSE  'freyberg6.rch_recharge_109.txt'  FACTOR  1.0
END PERIOD  109

BEGIN PERIOD  110
  recharge
    OPEN/CLOSE  'freyberg6.rch_recharge_110.txt'  FACTOR  1.0
END PERIOD  110

BEGIN PERIOD  111
  recharge
    OPEN/CLOSE  'freyberg6.rch_recharge_111.txt'  FACTOR  1.0
END PERIOD  111

BEGIN PERIOD  112
  recharge
    OPEN/CLOSE  'freyberg6.rch_recharge_112.txt'  FACTOR  1.0
END PERIOD  112

BEGIN PERIOD  113
  recharge
    OPEN/CLOSE  'freyberg6.rch_recharge_113.txt'  FACTOR  1.0
END PERIOD  113

BEGIN PERIOD  114
  recharge
    OPEN/CLOSE  'freyberg6.rch_recharge_114.txt'  FACTOR  1.0
END PERIOD  114

BEGIN PERIOD  115
  recharge
    OPEN/CLOSE  'freyberg6.rch_recharge_115.txt'  FACTOR  1.0
END PERIOD  115

BEGIN PERIOD  116
  recharge
    OPEN/CLOSE  'freyberg6.rch_recharge_116.txt'  FACTOR  1.0
END PERIOD  116

BEGIN PERIOD  117
  recharge
    OPEN/CLOSE  'freyberg6.rch_recharge_117.txt'  FACTOR  1.0
END PERIOD  117

BEGIN PERIOD  118
  recharge
    OPEN/CLOSE  'freyberg6.rch_recharge_118.txt'  FACTOR  1.0
END PERIOD  118

BEGIN PERIOD  119
  recharge
    OPEN/CLOSE  'freyberg6.rch_recharge_119.txt'  FACTOR  1.0
END PERIOD  119

BEGIN PERIOD  120
  recharge
    OPEN/CLOSE  'freyberg6.rch_recharge_120.txt'  FACTOR  1.0
END PERIOD  120

BEGIN PERIOD  121
  recharge
    OPEN/CLOSE  'freyberg6.rch_recharge_121.txt'  FACTOR  1.0
END PERIOD  121

BEGIN PERIOD  122
  recharge
    OPEN/CLOSE  'freyberg6.rch_recharge_122.txt'  FACTOR  1.0
END PERIOD  122

BEGIN PERIOD  123
  recharge
    OPEN/CLOSE  'freyberg6.rch_recharge_123.txt'  FACTOR  1.0
END PERIOD  123

BEGIN PERIOD  124
  recharge
    OPEN/CLOSE  'freyberg6.rch_recharge_124.txt'  FACTOR  1.0
END PERIOD  124

BEGIN PERIOD  125
  recharge
    OPEN/CLOSE  'freyberg6.rch_recharge_125.txt'  FACTOR  1.0
END PERIOD  125

BEGIN PERIOD  126
  recharge
    OPEN/CLOSE  'freyberg6.rch_recharge_126.txt'  FACTOR  1.0
END PERIOD  126

BEGIN PERIOD  127
  recharge
    OPEN/CLOSE  'freyberg6.rch_recharge_127.txt'  FACTOR  1.0
END PERIOD  127

BEGIN PERIOD  128
  recharge
    OPEN/CLOSE  'freyberg6.rch_recharge_128.txt'  FACTOR  1.0
END PERIOD  128

BEGIN PERIOD  129
  recharge
    OPEN/CLOSE  'freyberg6.rch_recharge_129.txt'  FACTOR  1.0
END PERIOD  129

BEGIN PERIOD  130
  recharge
    OPEN/CLOSE  'freyberg6.rch_recharge_130.txt'  FACTOR  1.0
END PERIOD  130

BEGIN PERIOD  131
  recharge
    OPEN/CLOSE  'freyberg6.rch_recharge_131.txt'  FACTOR  1.0
END PERIOD  131

BEGIN PERIOD  132
  recharge
    OPEN/CLOSE  'freyberg6.rch_recharge_132.txt'  FACTOR  1.0
END PERIOD  132

BEGIN PERIOD  133
  recharge
    OPEN/CLOSE  'freyberg6.rch_recharge_133.txt'  FACTOR  1.0
END PERIOD  133

BEGIN PERIOD  134
  recharge
    OPEN/CLOSE  'freyberg6.rch_recharge_134.txt'  FACTOR  1.0
END PERIOD  134

BEGIN PERIOD  135
  recharge
    OPEN/CLOSE  'freyberg6.rch_recharge_135.txt'  FACTOR  1.0
END PERIOD  135

BEGIN PERIOD  136
  recharge
    OPEN/CLOSE  'freyberg6.rch_recharge_136.txt'  FACTOR  1.0
END PERIOD  136

BEGIN PERIOD  137
  recharge
    OPEN/CLOSE  'freyberg6.rch_recharge_137.txt'  FACTOR  1.0
END PERIOD  137

BEGIN PERIOD  138
  recharge
    OPEN/CLOSE  'freyberg6.rch_recharge_138.txt'  FACTOR  1.0
END PERIOD  138

BEGIN PERIOD  139
  recharge
    OPEN/CLOSE  'freyberg6.rch_recharge_139.txt'  FACTOR  1.0
END PERIOD  139

BEGIN PERIOD  140
  recharge
    OPEN/CLOSE  'freyberg6.rch_recharge_140.txt'  FACTOR  1.0
END PERIOD  140

BEGIN PERIOD  141
  recharge
    OPEN/CLOSE  'freyberg6.rch_recharge_141.txt'  FACTOR  1.0
END PERIOD  141

BEGIN PERIOD  142
  recharge
    OPEN/CLOSE  'freyberg6.rch_recharge_142.txt'  FACTOR  1.0
END PERIOD  142

BEGIN PERIOD  143
  recharge
    OPEN/CLOSE  'freyberg6.rch_recharge_143.txt'  FACTOR  1.0
END PERIOD  143

BEGIN PERIOD  144
  recharge
    OPEN/CLOSE  'freyberg6.rch_recharge_144.txt'  FACTOR  1.0
END PERIOD  144

BEGIN PERIOD  145
  recharge
    OPEN/CLOSE  'freyberg6.rch_recharge_145.txt'  FACTOR  1.0
END PERIOD  145

BEGIN PERIOD  146
  recharge
    OPEN/CLOSE  'freyberg6.rch_recharge_146.txt'  FACTOR  1.0
END PERIOD  146

BEGIN PERIOD  147
  recharge
    OPEN/CLOSE  'freyberg6.rch_recharge_147.txt'  FACTOR  1.0
END PERIOD  147

BEGIN PERIOD  148
  recharge
    OPEN/CLOSE  'freyberg6.rch_recharge_148.txt'  FACTOR  1.0
END PERIOD  148

BEGIN PERIOD  149
  recharge
    OPEN/CLOSE  'freyberg6.rch_recharge_149.txt'  FACTOR  1.0
END PERIOD  149

BEGIN PERIOD  150
  recharge
    OPEN/CLOSE  'freyberg6.rch_recharge_150.txt'  FACTOR  1.0
END PERIOD  150

BEGIN PERIOD  151
  recharge
    OPEN/CLOSE  'freyberg6.rch_recharge_151.txt'  FACTOR  1.0
END PERIOD  151

BEGIN PERIOD  152
  recharge
    OPEN/CLOSE  'freyberg6.rch_recharge_152.txt'  FACTOR  1.0
END PERIOD  152

BEGIN PERIOD  153
  recharge
    OPEN/CLOSE  'freyberg6.rch_recharge_153.txt'  FACTOR  1.0
END PERIOD  153

BEGIN PERIOD  154
  recharge
    OPEN/CLOSE  'freyberg6.rch_recharge_154.txt'  FACTOR  1.0
END PERIOD  154

BEGIN PERIOD  155
  recharge
    OPEN/CLOSE  'freyberg6.rch_recharge_155.txt'  FACTOR  1.0
END PERIOD  155

BEGIN PERIOD  156
  recharge
    OPEN/CLOSE  'freyberg6.rch_recharge_156.txt'  FACTOR  1.0
END PERIOD  156

BEGIN PERIOD  157
  recharge
    OPEN/CLOSE  'freyberg6.rch_recharge_157.txt'  FACTOR  1.0
END PERIOD  157

BEGIN PERIOD  158
  recharge
    OPEN/CLOSE  'freyberg6.rch_recharge_158.txt'  FACTOR  1.0
END PERIOD  158

BEGIN PERIOD  159
  recharge
    OPEN/CLOSE  'freyberg6.rch_recharge_159.txt'  FACTOR  1.0
END PERIOD  159

BEGIN PERIOD  160
  recharge
    OPEN/CLOSE  'freyberg6.rch_recharge_160.txt'  FACTOR  1.0
END PERIOD  160

BEGIN PERIOD  161
  recharge
    OPEN/CLOSE  'freyberg6.rch_recharge_161.txt'  FACTOR  1.0
END PERIOD  161

BEGIN PERIOD  162
  recharge
    OPEN/CLOSE  'freyberg6.rch_recharge_162.txt'  FACTOR  1.0
END PERIOD  162

BEGIN PERIOD  163
  recharge
    OPEN/CLOSE  'freyberg6.rch_recharge_163.txt'  FACTOR  1.0
END PERIOD  163

BEGIN PERIOD  164
  recharge
    OPEN/CLOSE  'freyberg6.rch_recharge_164.txt'  FACTOR  1.0
END PERIOD  164

BEGIN PERIOD  165
  recharge
    OPEN/CLOSE  'freyberg6.rch_recharge_165.txt'  FACTOR  1.0
END PERIOD  165

BEGIN PERIOD  166
  recharge
    OPEN/CLOSE  'freyberg6.rch_recharge_166.txt'  FACTOR  1.0
END PERIOD  166

BEGIN PERIOD  167
  recharge
    OPEN/CLOSE  'freyberg6.rch_recharge_167.txt'  FACTOR  1.0
END PERIOD  167

BEGIN PERIOD  168
  recharge
    OPEN/CLOSE  'freyberg6.rch_recharge_168.txt'  FACTOR  1.0
END PERIOD  168

BEGIN PERIOD  169
  recharge
    OPEN/CLOSE  'freyberg6.rch_recharge_169.txt'  FACTOR  1.0
END PERIOD  169

BEGIN PERIOD  170
  recharge
    OPEN/CLOSE  'freyberg6.rch_recharge_170.txt'  FACTOR  1.0
END PERIOD  170

BEGIN PERIOD  171
  recharge
    OPEN/CLOSE  'freyberg6.rch_recharge_171.txt'  FACTOR  1.0
END PERIOD  171

BEGIN PERIOD  172
  recharge
    OPEN/CLOSE  'freyberg6.rch_recharge_172.txt'  FACTOR  1.0
END PERIOD  172

BEGIN PERIOD  173
  recharge
    OPEN/CLOSE  'freyberg6.rch_recharge_173.txt'  FACTOR  1.0
END PERIOD  173

BEGIN PERIOD  174
  recharge
    OPEN/CLOSE  'freyberg6.rch_recharge_174.txt'  FACTOR  1.0
END PERIOD  174

BEGIN PERIOD  175
  recharge
    OPEN/CLOSE  'freyberg6.rch_recharge_175.txt'  FACTOR  1.0
END PERIOD  175

BEGIN PERIOD  176
  recharge
    OPEN/CLOSE  'freyberg6.rch_recharge_176.txt'  FACTOR  1.0
END PERIOD  176

BEGIN PERIOD  177
  recharge
    OPEN/CLOSE  'freyberg6.rch_recharge_177.txt'  FACTOR  1.0
END PERIOD  177

BEGIN PERIOD  178
  recharge
    OPEN/CLOSE  'freyberg6.rch_recharge_178.txt'  FACTOR  1.0
END PERIOD  178

BEGIN PERIOD  179
  recharge
    OPEN/CLOSE  'freyberg6.rch_recharge_179.txt'  FACTOR  1.0
END PERIOD  179

BEGIN PERIOD  180
  recharge
    OPEN/CLOSE  'freyberg6.rch_recharge_180.txt'  FACTOR  1.0
END PERIOD  180

BEGIN PERIOD  181
  recharge
    OPEN/CLOSE  'freyberg6.rch_recharge_181.txt'  FACTOR  1.0
END PERIOD  181

BEGIN PERIOD  182
  recharge
    OPEN/CLOSE  'freyberg6.rch_recharge_182.txt'  FACTOR  1.0
END PERIOD  182

BEGIN PERIOD  183
  recharge
    OPEN/CLOSE  'freyberg6.rch_recharge_183.txt'  FACTOR  1.0
END PERIOD  183

BEGIN PERIOD  184
  recharge
    OPEN/CLOSE  'freyberg6.rch_recharge_184.txt'  FACTOR  1.0
END PERIOD  184

BEGIN PERIOD  185
  recharge
    OPEN/CLOSE  'freyberg6.rch_recharge_185.txt'  FACTOR  1.0
END PERIOD  185

BEGIN PERIOD  186
  recharge
    OPEN/CLOSE  'freyberg6.rch_recharge_186.txt'  FACTOR  1.0
END PERIOD  186

BEGIN PERIOD  187
  recharge
    OPEN/CLOSE  'freyberg6.rch_recharge_187.txt'  FACTOR  1.0
END PERIOD  187

BEGIN PERIOD  188
  recharge
    OPEN/CLOSE  'freyberg6.rch_recharge_188.txt'  FACTOR  1.0
END PERIOD  188

BEGIN PERIOD  189
  recharge
    OPEN/CLOSE  'freyberg6.rch_recharge_189.txt'  FACTOR  1.0
END PERIOD  189

BEGIN PERIOD  190
  recharge
    OPEN/CLOSE  'freyberg6.rch_recharge_190.txt'  FACTOR  1.0
END PERIOD  190

BEGIN PERIOD  191
  recharge
    OPEN/CLOSE  'freyberg6.rch_recharge_191.txt'  FACTOR  1.0
END PERIOD  191

BEGIN PERIOD  192
  recharge
    OPEN/CLOSE  'freyberg6.rch_recharge_192.txt'  FACTOR  1.0
END PERIOD  192

BEGIN PERIOD  193
  recharge
    OPEN/CLOSE  'freyberg6.rch_recharge_193.txt'  FACTOR  1.0
END PERIOD  193

BEGIN PERIOD  194
  recharge
    OPEN/CLOSE  'freyberg6.rch_recharge_194.txt'  FACTOR  1.0
END PERIOD  194

BEGIN PERIOD  195
  recharge
    OPEN/CLOSE  'freyberg6.rch_recharge_195.txt'  FACTOR  1.0
END PERIOD  195

BEGIN PERIOD  196
  recharge
    OPEN/CLOSE  'freyberg6.rch_recharge_196.txt'  FACTOR  1.0
END PERIOD  196

BEGIN PERIOD  197
  recharge
    OPEN/CLOSE  'freyberg6.rch_recharge_197.txt'  FACTOR  1.0
END PERIOD  197

BEGIN PERIOD  198
  recharge
    OPEN/CLOSE  'freyberg6.rch_recharge_198.txt'  FACTOR  1.0
END PERIOD  198

BEGIN PERIOD  199
  recharge
    OPEN/CLOSE  'freyberg6.rch_recharge_199.txt'  FACTOR  1.0
END PERIOD  199

BEGIN PERIOD  200
  recharge
    OPEN/CLOSE  'freyberg6.rch_recharge_200.txt'  FACTOR  1.0
END PERIOD  200

BEGIN PERIOD  201
  recharge
    OPEN/CLOSE  'freyberg6.rch_recharge_201.txt'  FACTOR  1.0
END PERIOD  201

BEGIN PERIOD  202
  recharge
    OPEN/CLOSE  'freyberg6.rch_recharge_202.txt'  FACTOR  1.0
END PERIOD  202

BEGIN PERIOD  203
  recharge
    OPEN/CLOSE  'freyberg6.rch_recharge_203.txt'  FACTOR  1.0
END PERIOD  203

BEGIN PERIOD  204
  recharge
    OPEN/CLOSE  'freyberg6.rch_recharge_204.txt'  FACTOR  1.0
END PERIOD  204

BEGIN PERIOD  205
  recharge
    OPEN/CLOSE  'freyberg6.rch_recharge_205.txt'  FACTOR  1.0
END PERIOD  205

BEGIN PERIOD  206
  recharge
    OPEN/CLOSE  'freyberg6.rch_recharge_206.txt'  FACTOR  1.0
END PERIOD  206

BEGIN PERIOD  207
  recharge
    OPEN/CLOSE  'freyberg6.rch_recharge_207.txt'  FACTOR  1.0
END PERIOD  207

BEGIN PERIOD  208
  recharge
    OPEN/CLOSE  'freyberg6.rch_recharge_208.txt'  FACTOR  1.0
END PERIOD  208

BEGIN PERIOD  209
  recharge
    OPEN/CLOSE  'freyberg6.rch_recharge_209.txt'  FACTOR  1.0
END PERIOD  209

BEGIN PERIOD  210
  recharge
    OPEN/CLOSE  'freyberg6.rch_recharge_210.txt'  FACTOR  1.0
END PERIOD  210

BEGIN PERIOD  211
  recharge
    OPEN/CLOSE  'freyberg6.rch_recharge_211.txt'  FACTOR  1.0
END PERIOD  211

BEGIN PERIOD  212
  recharge
    OPEN/CLOSE  'freyberg6.rch_recharge_212.txt'  FACTOR  1.0
END PERIOD  212

BEGIN PERIOD  213
  recharge
    OPEN/CLOSE  'freyberg6.rch_recharge_213.txt'  FACTOR  1.0
END PERIOD  213

BEGIN PERIOD  214
  recharge
    OPEN/CLOSE  'freyberg6.rch_recharge_214.txt'  FACTOR  1.0
END PERIOD  214

BEGIN PERIOD  215
  recharge
    OPEN/CLOSE  'freyberg6.rch_recharge_215.txt'  FACTOR  1.0
END PERIOD  215

BEGIN PERIOD  216
  recharge
    OPEN/CLOSE  'freyberg6.rch_recharge_216.txt'  FACTOR  1.0
END PERIOD  216

BEGIN PERIOD  217
  recharge
    OPEN/CLOSE  'freyberg6.rch_recharge_217.txt'  FACTOR  1.0
END PERIOD  217

BEGIN PERIOD  218
  recharge
    OPEN/CLOSE  'freyberg6.rch_recharge_218.txt'  FACTOR  1.0
END PERIOD  218

BEGIN PERIOD  219
  recharge
    OPEN/CLOSE  'freyberg6.rch_recharge_219.txt'  FACTOR  1.0
END PERIOD  219

BEGIN PERIOD  220
  recharge
    OPEN/CLOSE  'freyberg6.rch_recharge_220.txt'  FACTOR  1.0
END PERIOD  220

BEGIN PERIOD  221
  recharge
    OPEN/CLOSE  'freyberg6.rch_recharge_221.txt'  FACTOR  1.0
END PERIOD  221

BEGIN PERIOD  222
  recharge
    OPEN/CLOSE  'freyberg6.rch_recharge_222.txt'  FACTOR  1.0
END PERIOD  222

BEGIN PERIOD  223
  recharge
    OPEN/CLOSE  'freyberg6.rch_recharge_223.txt'  FACTOR  1.0
END PERIOD  223

BEGIN PERIOD  224
  recharge
    OPEN/CLOSE  'freyberg6.rch_recharge_224.txt'  FACTOR  1.0
END PERIOD  224

BEGIN PERIOD  225
  recharge
    OPEN/CLOSE  'freyberg6.rch_recharge_225.txt'  FACTOR  1.0
END PERIOD  225

BEGIN PERIOD  226
  recharge
    OPEN/CLOSE  'freyberg6.rch_recharge_226.txt'  FACTOR  1.0
END PERIOD  226

BEGIN PERIOD  227
  recharge
    OPEN/CLOSE  'freyberg6.rch_recharge_227.txt'  FACTOR  1.0
END PERIOD  227

BEGIN PERIOD  228
  recharge
    OPEN/CLOSE  'freyberg6.rch_recharge_228.txt'  FACTOR  1.0
END PERIOD  228

BEGIN PERIOD  229
  recharge
    OPEN/CLOSE  'freyberg6.rch_recharge_229.txt'  FACTOR  1.0
END PERIOD  229

BEGIN PERIOD  230
  recharge
    OPEN/CLOSE  'freyberg6.rch_recharge_230.txt'  FACTOR  1.0
END PERIOD  230

BEGIN PERIOD  231
  recharge
    OPEN/CLOSE  'freyberg6.rch_recharge_231.txt'  FACTOR  1.0
END PERIOD  231

BEGIN PERIOD  232
  recharge
    OPEN/CLOSE  'freyberg6.rch_recharge_232.txt'  FACTOR  1.0
END PERIOD  232

BEGIN PERIOD  233
  recharge
    OPEN/CLOSE  'freyberg6.rch_recharge_233.txt'  FACTOR  1.0
END PERIOD  233

BEGIN PERIOD  234
  recharge
    OPEN/CLOSE  'freyberg6.rch_recharge_234.txt'  FACTOR  1.0
END PERIOD  234

BEGIN PERIOD  235
  recharge
    OPEN/CLOSE  'freyberg6.rch_recharge_235.txt'  FACTOR  1.0
END PERIOD  235

BEGIN PERIOD  236
  recharge
    OPEN/CLOSE  'freyberg6.rch_recharge_236.txt'  FACTOR  1.0
END PERIOD  236

BEGIN PERIOD  237
  recharge
    OPEN/CLOSE  'freyberg6.rch_recharge_237.txt'  FACTOR  1.0
END PERIOD  237

BEGIN PERIOD  238
  recharge
    OPEN/CLOSE  'freyberg6.rch_recharge_238.txt'  FACTOR  1.0
END PERIOD  238

BEGIN PERIOD  239
  recharge
    OPEN/CLOSE  'freyberg6.rch_recharge_239.txt'  FACTOR  1.0
END PERIOD  239

BEGIN PERIOD  240
  recharge
    OPEN/CLOSE  'freyberg6.rch_recharge_240.txt'  FACTOR  1.0
END PERIOD  240

BEGIN PERIOD  241
  recharge
    OPEN/CLOSE  'freyberg6.rch_recharge_241.txt'  FACTOR  1.0
END PERIOD  241

BEGIN PERIOD  242
  recharge
    OPEN/CLOSE  'freyberg6.rch_recharge_242.txt'  FACTOR  1.0
END PERIOD  242

BEGIN PERIOD  243
  recharge
    OPEN/CLOSE  'freyberg6.rch_recharge_243.txt'  FACTOR  1.0
END PERIOD  243

BEGIN PERIOD  244
  recharge
    OPEN/CLOSE  'freyberg6.rch_recharge_244.txt'  FACTOR  1.0
END PERIOD  244

BEGIN PERIOD  245
  recharge
    OPEN/CLOSE  'freyberg6.rch_recharge_245.txt'  FACTOR  1.0
END PERIOD  245

BEGIN PERIOD  246
  recharge
    OPEN/CLOSE  'freyberg6.rch_recharge_246.txt'  FACTOR  1.0
END PERIOD  246

BEGIN PERIOD  247
  recharge
    OPEN/CLOSE  'freyberg6.rch_recharge_247.txt'  FACTOR  1.0
END PERIOD  247

BEGIN PERIOD  248
  recharge
    OPEN/CLOSE  'freyberg6.rch_recharge_248.txt'  FACTOR  1.0
END PERIOD  248

BEGIN PERIOD  249
  recharge
    OPEN/CLOSE  'freyberg6.rch_recharge_249.txt'  FACTOR  1.0
END PERIOD  249

BEGIN PERIOD  250
  recharge
    OPEN/CLOSE  'freyberg6.rch_recharge_250.txt'  FACTOR  1.0
END PERIOD  250

BEGIN PERIOD  251
  recharge
    OPEN/CLOSE  'freyberg6.rch_recharge_251.txt'  FACTOR  1.0
END PERIOD  251

BEGIN PERIOD  252
  recharge
    OPEN/CLOSE  'freyberg6.rch_recharge_252.txt'  FACTOR  1.0
END PERIOD  252

BEGIN PERIOD  253
  recharge
    OPEN/CLOSE  'freyberg6.rch_recharge_253.txt'  FACTOR  1.0
END PERIOD  253

BEGIN PERIOD  254
  recharge
    OPEN/CLOSE  'freyberg6.rch_recharge_254.txt'  FACTOR  1.0
END PERIOD  254

BEGIN PERIOD  255
  recharge
    OPEN/CLOSE  'freyberg6.rch_recharge_255.txt'  FACTOR  1.0
END PERIOD  255

BEGIN PERIOD  256
  recharge
    OPEN/CLOSE  'freyberg6.rch_recharge_256.txt'  FACTOR  1.0
END PERIOD  256

BEGIN PERIOD  257
  recharge
    OPEN/CLOSE  'freyberg6.rch_recharge_257.txt'  FACTOR  1.0
END PERIOD  257

BEGIN PERIOD  258
  recharge
    OPEN/CLOSE  'freyberg6.rch_recharge_258.txt'  FACTOR  1.0
END PERIOD  258

BEGIN PERIOD  259
  recharge
    OPEN/CLOSE  'freyberg6.rch_recharge_259.txt'  FACTOR  1.0
END PERIOD  259

BEGIN PERIOD  260
  recharge
    OPEN/CLOSE  'freyberg6.rch_recharge_260.txt'  FACTOR  1.0
END PERIOD  260

BEGIN PERIOD  261
  recharge
    OPEN/CLOSE  'freyberg6.rch_recharge_261.txt'  FACTOR  1.0
END PERIOD  261

BEGIN PERIOD  262
  recharge
    OPEN/CLOSE  'freyberg6.rch_recharge_262.txt'  FACTOR  1.0
END PERIOD  262

BEGIN PERIOD  263
  recharge
    OPEN/CLOSE  'freyberg6.rch_recharge_263.txt'  FACTOR  1.0
END PERIOD  263

BEGIN PERIOD  264
  recharge
    OPEN/CLOSE  'freyberg6.rch_recharge_264.txt'  FACTOR  1.0
END PERIOD  264

BEGIN PERIOD  265
  recharge
    OPEN/CLOSE  'freyberg6.rch_recharge_265.txt'  FACTOR  1.0
END PERIOD  265

BEGIN PERIOD  266
  recharge
    OPEN/CLOSE  'freyberg6.rch_recharge_266.txt'  FACTOR  1.0
END PERIOD  266

BEGIN PERIOD  267
  recharge
    OPEN/CLOSE  'freyberg6.rch_recharge_267.txt'  FACTOR  1.0
END PERIOD  267

BEGIN PERIOD  268
  recharge
    OPEN/CLOSE  'freyberg6.rch_recharge_268.txt'  FACTOR  1.0
END PERIOD  268

BEGIN PERIOD  269
  recharge
    OPEN/CLOSE  'freyberg6.rch_recharge_269.txt'  FACTOR  1.0
END PERIOD  269

BEGIN PERIOD  270
  recharge
    OPEN/CLOSE  'freyberg6.rch_recharge_270.txt'  FACTOR  1.0
END PERIOD  270

BEGIN PERIOD  271
  recharge
    OPEN/CLOSE  'freyberg6.rch_recharge_271.txt'  FACTOR  1.0
END PERIOD  271

BEGIN PERIOD  272
  recharge
    OPEN/CLOSE  'freyberg6.rch_recharge_272.txt'  FACTOR  1.0
END PERIOD  272

BEGIN PERIOD  273
  recharge
    OPEN/CLOSE  'freyberg6.rch_recharge_273.txt'  FACTOR  1.0
END PERIOD  273

BEGIN PERIOD  274
  recharge
    OPEN/CLOSE  'freyberg6.rch_recharge_274.txt'  FACTOR  1.0
END PERIOD  274

BEGIN PERIOD  275
  recharge
    OPEN/CLOSE  'freyberg6.rch_recharge_275.txt'  FACTOR  1.0
END PERIOD  275

BEGIN PERIOD  276
  recharge
    OPEN/CLOSE  'freyberg6.rch_recharge_276.txt'  FACTOR  1.0
END PERIOD  276

BEGIN PERIOD  277
  recharge
    OPEN/CLOSE  'freyberg6.rch_recharge_277.txt'  FACTOR  1.0
END PERIOD  277

BEGIN PERIOD  278
  recharge
    OPEN/CLOSE  'freyberg6.rch_recharge_278.txt'  FACTOR  1.0
END PERIOD  278

BEGIN PERIOD  279
  recharge
    OPEN/CLOSE  'freyberg6.rch_recharge_279.txt'  FACTOR  1.0
END PERIOD  279

BEGIN PERIOD  280
  recharge
    OPEN/CLOSE  'freyberg6.rch_recharge_280.txt'  FACTOR  1.0
END PERIOD  280

BEGIN PERIOD  281
  recharge