# File generated by Flopy version 3.3.4 on 10/04/2021 at 18:48:37.
BEGIN options
  PRINT_OPTION  summary
  COMPLEXITY  complex
END options

