# File generated by Flopy version 3.7.0.dev0 on 08/02/2025 at 11:56:53.
BEGIN options
  PRINT_OPTION  summary
  COMPLEXITY  simple
END options

BEGIN nonlinear
  OUTER_DVCLOSE       0.1000000
  OUTER_MAXIMUM  100
  UNDER_RELAXATION  none
END nonlinear

BEGIN linear
  INNER_MAXIMUM  100
  INNER_DVCLOSE       0.1000000
  inner_rclose    0.100000000
  LINEAR_ACCELERATION  bicgstab
END linear

