# File generated by Flopy version 3.3.5 on 03/17/2022 at 12:37:30.
BEGIN Options
  PRINT_INPUT
  PRINT_FLOWS
  SAVE_FLOWS
END Options

BEGIN Dimensions
  MAXBOUND  6
END Dimensions

BEGIN PERIOD  1
  3 10 17    -175.00000000
  3 12 14    -175.00000000
  3 21 15    -175.00000000
  3 27 11    -175.00000000
  3 30 7    -175.00000000
  3 35 13    -175.00000000
END PERIOD  1

BEGIN PERIOD  2
  3 10 17     -62.72150000
  3 12 14     -62.72150000
  3 21 15     -62.72150000
  3 27 11     -62.72150000
  3 30 7     -62.72150000
  3 35 13     -62.72150000
END PERIOD  2

BEGIN PERIOD  3
  3 10 17     -69.59123000
  3 12 14     -69.59123000
  3 21 15     -69.59123000
  3 27 11     -69.59123000
  3 30 7     -69.59123000
  3 35 13     -69.59123000
END PERIOD  3

BEGIN PERIOD  4
  3 10 17    -107.15191000
  3 12 14    -107.15191000
  3 21 15    -107.15191000
  3 27 11    -107.15191000
  3 30 7    -107.15191000
  3 35 13    -107.15191000
END PERIOD  4

BEGIN PERIOD  5
  3 10 17    -164.46732000
  3 12 14    -164.46732000
  3 21 15    -164.46732000
  3 27 11    -164.46732000
  3 30 7    -164.46732000
  3 35 13    -164.46732000
END PERIOD  5

BEGIN PERIOD  6
  3 10 17    -224.84941000
  3 12 14    -224.84941000
  3 21 15    -224.84941000
  3 27 11    -224.84941000
  3 30 7    -224.84941000
  3 35 13    -224.84941000
END PERIOD  6

BEGIN PERIOD  7
  3 10 17    -270.71735000
  3 12 14    -270.71735000
  3 21 15    -270.71735000
  3 27 11    -270.71735000
  3 30 7    -270.71735000
  3 35 13    -270.71735000
END PERIOD  7

BEGIN PERIOD  8
  3 10 17    -291.60320000
  3 12 14    -291.60320000
  3 21 15    -291.60320000
  3 27 11    -291.60320000
  3 30 7    -291.60320000
  3 35 13    -291.60320000
END PERIOD  8

BEGIN PERIOD  9
  3 10 17    -288.71606000
  3 12 14    -288.71606000
  3 21 15    -288.71606000
  3 27 11    -288.71606000
  3 30 7    -288.71606000
  3 35 13    -288.71606000
END PERIOD  9

BEGIN PERIOD  10
  3 10 17    -273.60507000
  3 12 14    -273.60507000
  3 21 15    -273.60507000
  3 27 11    -273.60507000
  3 30 7    -273.60507000
  3 35 13    -273.60507000
END PERIOD  10

BEGIN PERIOD  11
  3 10 17    -229.78413000
  3 12 14    -229.78413000
  3 21 15    -229.78413000
  3 27 11    -229.78413000
  3 30 7    -229.78413000
  3 35 13    -229.78413000
END PERIOD  11

BEGIN PERIOD  12
  3 10 17    -170.01218000
  3 12 14    -170.01218000
  3 21 15    -170.01218000
  3 27 11    -170.01218000
  3 30 7    -170.01218000
  3 35 13    -170.01218000
END PERIOD  12

BEGIN PERIOD  13
  3 10 17    -111.69247000
  3 12 14    -111.69247000
  3 21 15    -111.69247000
  3 27 11    -111.69247000
  3 30 7    -111.69247000
  3 35 13    -111.69247000
END PERIOD  13

BEGIN PERIOD  14
  3 10 17     -71.80547000
  3 12 14     -71.80547000
  3 21 15     -71.80547000
  3 27 11     -71.80547000
  3 30 7     -71.80547000
  3 35 13     -71.80547000
END PERIOD  14

BEGIN PERIOD  15
  3 10 17     -61.96471400
  3 12 14     -61.96471400
  3 21 15     -61.96471400
  3 27 11     -61.96471400
  3 30 7     -61.96471400
  3 35 13     -61.96471400
END PERIOD  15

BEGIN PERIOD  16
  3 10 17     -85.03544000
  3 12 14     -85.03544000
  3 21 15     -85.03544000
  3 27 11     -85.03544000
  3 30 7     -85.03544000
  3 35 13     -85.03544000
END PERIOD  16

BEGIN PERIOD  17
  3 10 17    -134.30035000
  3 12 14    -134.30035000
  3 21 15    -134.30035000
  3 27 11    -134.30035000
  3 30 7    -134.30035000
  3 35 13    -134.30035000
END PERIOD  17

BEGIN PERIOD  18
  3 10 17    -195.41544000
  3 12 14    -195.41544000
  3 21 15    -195.41544000
  3 27 11    -195.41544000
  3 30 7    -195.41544000
  3 35 13    -195.41544000
END PERIOD  18

BEGIN PERIOD  19
  3 10 17    -250.58632000
  3 12 14    -250.58632000
  3 21 15    -250.58632000
  3 27 11    -250.58632000
  3 30 7    -250.58632000
  3 35 13    -250.58632000
END PERIOD  19

BEGIN PERIOD  20
  3 10 17    -283.74940000
  3 12 14    -283.74940000
  3 21 15    -283.74940000
  3 27 11    -283.74940000
  3 30 7    -283.74940000
  3 35 13    -283.74940000
END PERIOD  20

BEGIN PERIOD  21
  3 10 17    -285.24890000
  3 12 14    -285.24890000
  3 21 15    -285.24890000
  3 27 11    -285.24890000
  3 30 7    -285.24890000
  3 35 13    -285.24890000
END PERIOD  21

BEGIN PERIOD  22
  3 10 17    -254.64816000
  3 12 14    -254.64816000
  3 21 15    -254.64816000
  3 27 11    -254.64816000
  3 30 7    -254.64816000
  3 35 13    -254.64816000
END PERIOD  22

BEGIN PERIOD  23
  3 10 17    -200.85701000
  3 12 14    -200.85701000
  3 21 15    -200.85701000
  3 27 11    -200.85701000
  3 30 7    -200.85701000
  3 35 13    -200.85701000
END PERIOD  23

BEGIN PERIOD  24
  3 10 17    -139.53728000
  3 12 14    -139.53728000
  3 21 15    -139.53728000
  3 27 11    -139.53728000
  3 30 7    -139.53728000
  3 35 13    -139.53728000
END PERIOD  24

BEGIN PERIOD  25
  3 10 17     -88.54291500
  3 12 14     -88.54291500
  3 21 15     -88.54291500
  3 27 11     -88.54291500
  3 30 7     -88.54291500
  3 35 13     -88.54291500
END PERIOD  25

