# File generated by Flopy version 3.3.6 on 03/16/2022 at 17:19:54.
BEGIN Options
  TIME_UNITS  days
END Options

BEGIN Dimensions
  NPER  25
END Dimensions

BEGIN PERIODDATA
       1.00000000  1       1.00000000  NSTP TSMULT
      31.00000000  1       1.00000000  NSTP TSMULT
      29.00000000  1       1.00000000  NSTP TSMULT
      31.00000000  1       1.00000000  NSTP TSMULT
      30.00000000  1       1.00000000  NSTP TSMULT
      31.00000000  1       1.00000000  NSTP TSMULT
      30.00000000  1       1.00000000  NSTP TSMULT
      31.00000000  1       1.00000000  NSTP TSMULT
      31.00000000  1       1.00000000  NSTP TSMULT
      30.00000000  1       1.00000000  NSTP TSMULT
      31.00000000  1       1.00000000  NSTP TSMULT
      30.00000000  1       1.00000000  NSTP TSMULT
      31.00000000  1       1.00000000  NSTP TSMULT
      31.00000000  1       1.00000000  NSTP TSMULT
      28.00000000  1       1.00000000  NSTP TSMULT
      31.00000000  1       1.00000000  NSTP TSMULT
      30.00000000  1       1.00000000  NSTP TSMULT
      31.00000000  1       1.00000000  NSTP TSMULT
      30.00000000  1       1.00000000  NSTP TSMULT
      31.00000000  1       1.00000000  NSTP TSMULT
      31.00000000  1       1.00000000  NSTP TSMULT
      30.00000000  1       1.00000000  NSTP TSMULT
      31.00000000  1       1.00000000  NSTP TSMULT
      30.00000000  1       1.00000000  NSTP TSMULT
      31.00000000  1       1.00000000
END PERIODDATA

