# File generated by Flopy version 3.3.5 on 03/15/2022 at 15:46:11.
BEGIN Options
  CONTINUE
END Options

BEGIN TIMING
  TDIS6  freyberg6.tdis
END TIMING

BEGIN MODELS
  gwf6  freyberg6.nam  freyberg6
END MODELS

BEGIN EXCHANGES
END EXCHANGES

BEGIN SOLUTIONGROUP  1
  MXITER  1
  ims6  freyberg6.ims  freyberg6
END SOLUTIONGROUP  1

