# File generated by Flopy version 3.3.6 on 03/16/2022 at 17:19:55.
BEGIN options
END options

BEGIN continuous  FILEOUT  sfr.csv
  headwater  sfr  headwater
  tailwater  sfr  tailwater
  gage_1  inflow  40
END continuous  FILEOUT  sfr.csv

