# File generated by Flopy version 3.3.4 on 03/01/2022 at 17:30:12.
BEGIN options
END options

BEGIN continuous  FILEOUT  sfr.csv
  headwater  sfr  headwater
  tailwater  sfr  tailwater
  gage_1  inflow  40
END continuous  FILEOUT  sfr.csv

