# File generated by Flopy version 3.3.5 on 03/18/2022 at 15:07:26.
BEGIN options
END options

BEGIN continuous  FILEOUT  sfr.csv
  headwater  sfr  headwater
  tailwater  sfr  tailwater
  gage_1  inflow  40
END continuous  FILEOUT  sfr.csv

