pcf
* control data
             restart          estimation
         5       725         2         0         2
         4         2              single               point
   2.000000E+01  -3.000000E+00   3.000000E-01   1.000000E-02        -7
   1.000000E+01   1.000000E+01   1.000000E-03
   1.000000E-01
        20   1.000000E-02         3         3   1.000000E-02         3
         0         0         0
* singular value decomposition
         1
  10000000    1.000000E-06
1
* parameter groups
hk                     relative              1.0000000000E-02      0.0 switch                2.0000000000E+00      parabolic             1.0000000000E-05      5.0000000000E-01      smaller              
rch                    relative              1.0000000000E-02      0.0 switch                2.0000000000E+00      parabolic             1.0000000000E-05      5.0000000000E-01      smaller              
* parameter data
hk1                   log                   factor                5.0000000000E+00      5.0000000000E-02      5.0000000000E+01      hk                    1.0000000000E+00      0.0000000000E+00      1          
hk2                   log                   factor                5.0000000000E+00      5.0000000000E-02      5.0000000000E+01      hk                    1.0000000000E+00      0.0000000000E+00      1          
hk3                   log                   factor                5.0000000000E+00      5.0000000000E-02      5.0000000000E+01      hk                    1.0000000000E+00      0.0000000000E+00      1          
rch0                  fixed                 factor                1.0000000000E+00      5.0000000000E-01      2.0000000000E+00      rch                   1.0000000000E+00      0.0000000000E+00      1          
rch1                  fixed                 factor                1.0000000000E+00      5.0000000000E-01      2.0000000000E+00      rch                   1.0000000000E+00      0.0000000000E+00      1          
* observation groups
flux                 
hds                  
* observation data
gage_1:1.0            1.2233000000E+03      0.0000000000E+00      flux                 
gage_1:122.0          1.2914000000E+03      0.0000000000E+00      flux                 
gage_1:153.0          1.2101000000E+03      0.0000000000E+00      flux                 
gage_1:183.0          9.1407000000E+02      0.0000000000E+00      flux                 
gage_1:214.0          7.7220000000E+02      0.0000000000E+00      flux                 
gage_1:245.0          6.2113000000E+02      0.0000000000E+00      flux                 
gage_1:275.0          5.7192000000E+02      0.0000000000E+00      flux                 
gage_1:306.0          6.9393000000E+02      0.0000000000E+00      flux                 
gage_1:32.0           1.1545000000E+03      0.0000000000E+00      flux                 
gage_1:336.0          7.6087000000E+02      0.0000000000E+00      flux                 
gage_1:367.0          1.1742000000E+03      0.0000000000E+00      flux                 
gage_1:398.0          1.0486000000E+03      0.0000000000E+00      flux                 
gage_1:426.0          1.4697000000E+03      0.0000000000E+00      flux                 
gage_1:457.0          1.3644000000E+03      0.0000000000E+00      flux                 
gage_1:487.0          1.1673000000E+03      0.0000000000E+00      flux                 
gage_1:518.0          9.8758000000E+02      0.0000000000E+00      flux                 
gage_1:548.0          7.9762000000E+02      0.0000000000E+00      flux                 
gage_1:579.0          6.4284000000E+02      0.0000000000E+00      flux                 
gage_1:61.0           1.5587000000E+03      0.0000000000E+00      flux                 
gage_1:610.0          5.2835000000E+02      0.0000000000E+00      flux                 
gage_1:640.0          4.1721000000E+02      0.0000000000E+00      flux                 
gage_1:671.0          4.4887000000E+02      0.0000000000E+00      flux                 
gage_1:701.0          5.5823000000E+02      0.0000000000E+00      flux                 
gage_1:732.0          6.0544000000E+02      0.0000000000E+00      flux                 
gage_1:92.0           1.5686000000E+03      0.0000000000E+00      flux                 
headwater:1.0         -8.9177000000E+02     0.0000000000E+00      flux                 
headwater:122.0       -8.9083000000E+02     0.0000000000E+00      flux                 
headwater:153.0       -8.6627000000E+02     0.0000000000E+00      flux                 
headwater:183.0       -6.9823000000E+02     0.0000000000E+00      flux                 
headwater:214.0       -6.3256000000E+02     0.0000000000E+00      flux                 
headwater:245.0       -5.4944000000E+02     0.0000000000E+00      flux                 
headwater:275.0       -5.0252000000E+02     0.0000000000E+00      flux                 
headwater:306.0       -5.6810000000E+02     0.0000000000E+00      flux                 
headwater:32.0        -8.4531000000E+02     0.0000000000E+00      flux                 
headwater:336.0       -5.9776000000E+02     0.0000000000E+00      flux                 
headwater:367.0       -8.2997000000E+02     0.0000000000E+00      flux                 
headwater:398.0       -7.6587000000E+02     0.0000000000E+00      flux                 
headwater:426.0       -1.0403000000E+03     0.0000000000E+00      flux                 
headwater:457.0       -9.2562000000E+02     0.0000000000E+00      flux                 
headwater:487.0       -8.1653000000E+02     0.0000000000E+00      flux                 
headwater:518.0       -7.0078000000E+02     0.0000000000E+00      flux                 
headwater:548.0       -5.9249000000E+02     0.0000000000E+00      flux                 
headwater:579.0       -5.2100000000E+02     0.0000000000E+00      flux                 
headwater:61.0        -1.1117000000E+03     0.0000000000E+00      flux                 
headwater:610.0       -4.5989000000E+02     0.0000000000E+00      flux                 
headwater:640.0       -3.7929000000E+02     0.0000000000E+00      flux                 
headwater:671.0       -3.8150000000E+02     0.0000000000E+00      flux                 
headwater:701.0       -3.9461000000E+02     0.0000000000E+00      flux                 
headwater:732.0       -4.3470000000E+02     0.0000000000E+00      flux                 
headwater:92.0        -1.1081000000E+03     0.0000000000E+00      flux                 
tailwater:1.0         -2.0943000000E+02     0.0000000000E+00      flux                 
tailwater:122.0       -2.3863000000E+02     0.0000000000E+00      flux                 
tailwater:153.0       -2.2478000000E+02     0.0000000000E+00      flux                 
tailwater:183.0       -1.1935000000E+02     0.0000000000E+00      flux                 
tailwater:214.0       -7.3243000000E+01     0.0000000000E+00      flux                 
tailwater:245.0       -8.0119000000E+00     0.0000000000E+00      flux                 
tailwater:275.0       1.2488000000E+01      0.0000000000E+00      flux                 
tailwater:306.0       -3.0789000000E+01     0.0000000000E+00      flux                 
tailwater:32.0        -1.5946000000E+02     0.0000000000E+00      flux                 
tailwater:336.0       -2.4648000000E+01     0.0000000000E+00      flux                 
tailwater:367.0       -1.6133000000E+02     0.0000000000E+00      flux                 
tailwater:398.0       -1.2833000000E+02     0.0000000000E+00      flux                 
tailwater:426.0       -2.7568000000E+02     0.0000000000E+00      flux                 
tailwater:457.0       -2.8838000000E+02     0.0000000000E+00      flux                 
tailwater:487.0       -2.3521000000E+02     0.0000000000E+00      flux                 
tailwater:518.0       -1.8971000000E+02     0.0000000000E+00      flux                 
tailwater:548.0       -1.1456000000E+02     0.0000000000E+00      flux                 
tailwater:579.0       -4.9074000000E+01     0.0000000000E+00      flux                 
tailwater:61.0        -2.6726000000E+02     0.0000000000E+00      flux                 
tailwater:610.0       5.2792000000E+00      0.0000000000E+00      flux                 
tailwater:640.0       5.5747000000E+01      0.0000000000E+00      flux                 
tailwater:671.0       6.5754000000E+01      0.0000000000E+00      flux                 
tailwater:701.0       3.6481000000E+01      0.0000000000E+00      flux                 
tailwater:732.0       5.1565000000E+01      0.0000000000E+00      flux                 
tailwater:92.0        -3.0359000000E+02     0.0000000000E+00      flux                 
trgw_0_13_10:1.0      3.4406181390E+01      0.0000000000E+00      hds                  
trgw_0_13_10:122.0    3.4450661040E+01      0.0000000000E+00      hds                  
trgw_0_13_10:153.0    3.4441798750E+01      0.0000000000E+00      hds                  
trgw_0_13_10:183.0    3.4375621500E+01      0.0000000000E+00      hds                  
trgw_0_13_10:214.0    3.4323056330E+01      0.0000000000E+00      hds                  
trgw_0_13_10:245.0    3.4271101130E+01      0.0000000000E+00      hds                  
trgw_0_13_10:275.0    3.4231403770E+01      0.0000000000E+00      hds                  
trgw_0_13_10:306.0    3.4235611170E+01      0.0000000000E+00      hds                  
trgw_0_13_10:32.0     3.4382715260E+01      0.0000000000E+00      hds                  
trgw_0_13_10:336.0    3.4234587030E+01      0.0000000000E+00      hds                  
trgw_0_13_10:367.0    3.4294143320E+01      0.0000000000E+00      hds                  
trgw_0_13_10:398.0    3.4298650860E+01      0.0000000000E+00      hds                  
trgw_0_13_10:426.0    3.4404942250E+01      0.0000000000E+00      hds                  
trgw_0_13_10:457.0    3.4395482180E+01      0.0000000000E+00      hds                  
trgw_0_13_10:487.0    3.4373251180E+01      0.0000000000E+00      hds                  
trgw_0_13_10:518.0    3.4327720360E+01      0.0000000000E+00      hds                  
trgw_0_13_10:548.0    3.4282607510E+01      0.0000000000E+00      hds                  
trgw_0_13_10:579.0    3.4241248460E+01      0.0000000000E+00      hds                  
trgw_0_13_10:61.0     3.4464340620E+01      0.0000000000E+00      hds                  
trgw_0_13_10:610.0    3.4204958720E+01      0.0000000000E+00      hds                  
trgw_0_13_10:640.0    3.4164113100E+01      0.0000000000E+00      hds                  
trgw_0_13_10:671.0    3.4138340070E+01      0.0000000000E+00      hds                  
trgw_0_13_10:701.0    3.4134387650E+01      0.0000000000E+00      hds                  
trgw_0_13_10:732.0    3.4136987610E+01      0.0000000000E+00      hds                  
trgw_0_13_10:92.0     3.4494952390E+01      0.0000000000E+00      hds                  
trgw_0_15_16:1.0      3.4206265530E+01      0.0000000000E+00      hds                  
trgw_0_15_16:122.0    3.4215290780E+01      0.0000000000E+00      hds                  
trgw_0_15_16:153.0    3.4203851630E+01      0.0000000000E+00      hds                  
trgw_0_15_16:183.0    3.4117388680E+01      0.0000000000E+00      hds                  
trgw_0_15_16:214.0    3.4082371610E+01      0.0000000000E+00      hds                  
trgw_0_15_16:245.0    3.4043348440E+01      0.0000000000E+00      hds                  
trgw_0_15_16:275.0    3.4025432400E+01      0.0000000000E+00      hds                  
trgw_0_15_16:306.0    3.4058601420E+01      0.0000000000E+00      hds                  
trgw_0_15_16:32.0     3.4183320240E+01      0.0000000000E+00      hds                  
trgw_0_15_16:336.0    3.4076446000E+01      0.0000000000E+00      hds                  
trgw_0_15_16:367.0    3.4189772670E+01      0.0000000000E+00      hds                  
trgw_0_15_16:398.0    3.4150092480E+01      0.0000000000E+00      hds                  
trgw_0_15_16:426.0    3.4293345970E+01      0.0000000000E+00      hds                  
trgw_0_15_16:457.0    3.4237988920E+01      0.0000000000E+00      hds                  
trgw_0_15_16:487.0    3.4181039910E+01      0.0000000000E+00      hds                  
trgw_0_15_16:518.0    3.4120288840E+01      0.0000000000E+00      hds                  
trgw_0_15_16:548.0    3.4068968680E+01      0.0000000000E+00      hds                  
trgw_0_15_16:579.0    3.4041383480E+01      0.0000000000E+00      hds                  
trgw_0_15_16:61.0     3.4331982850E+01      0.0000000000E+00      hds                  
trgw_0_15_16:610.0    3.4008782510E+01      0.0000000000E+00      hds                  
trgw_0_15_16:640.0    3.3972222210E+01      0.0000000000E+00      hds                  
trgw_0_15_16:671.0    3.3974812990E+01      0.0000000000E+00      hds                  
trgw_0_15_16:701.0    3.3982579030E+01      0.0000000000E+00      hds                  
trgw_0_15_16:732.0    3.4004118600E+01      0.0000000000E+00      hds                  
trgw_0_15_16:92.0     3.4329153800E+01      0.0000000000E+00      hds                  
trgw_0_21_10:1.0      3.4202400440E+01      0.0000000000E+00      hds                  
trgw_0_21_10:122.0    3.4273220160E+01      0.0000000000E+00      hds                  
trgw_0_21_10:153.0    3.4244105920E+01      0.0000000000E+00      hds                  
trgw_0_21_10:183.0    3.4127349180E+01      0.0000000000E+00      hds                  
trgw_0_21_10:214.0    3.4091874040E+01      0.0000000000E+00      hds                  
trgw_0_21_10:245.0    3.4018811350E+01      0.0000000000E+00      hds                  
trgw_0_21_10:275.0    3.3990848980E+01      0.0000000000E+00      hds                  
trgw_0_21_10:306.0    3.4017032470E+01      0.0000000000E+00      hds                  
trgw_0_21_10:32.0     3.4142967960E+01      0.0000000000E+00      hds                  
trgw_0_21_10:336.0    3.4024704900E+01      0.0000000000E+00      hds                  
trgw_0_21_10:367.0    3.4132124630E+01      0.0000000000E+00      hds                  
trgw_0_21_10:398.0    3.4126305330E+01      0.0000000000E+00      hds                  
trgw_0_21_10:426.0    3.4264976690E+01      0.0000000000E+00      hds                  
trgw_0_21_10:457.0    3.4237099570E+01      0.0000000000E+00      hds                  
trgw_0_21_10:487.0    3.4190162060E+01      0.0000000000E+00      hds                  
trgw_0_21_10:518.0    3.4141005250E+01      0.0000000000E+00      hds                  
trgw_0_21_10:548.0    3.4086051560E+01      0.0000000000E+00      hds                  
trgw_0_21_10:579.0    3.4026896630E+01      0.0000000000E+00      hds                  
trgw_0_21_10:61.0     3.4248718250E+01      0.0000000000E+00      hds                  
trgw_0_21_10:610.0    3.3972122430E+01      0.0000000000E+00      hds                  
trgw_0_21_10:640.0    3.3923950440E+01      0.0000000000E+00      hds                  
trgw_0_21_10:671.0    3.3911280320E+01      0.0000000000E+00      hds                  
trgw_0_21_10:701.0    3.3926848090E+01      0.0000000000E+00      hds                  
trgw_0_21_10:732.0    3.3929513370E+01      0.0000000000E+00      hds                  
trgw_0_21_10:92.0     3.4302755490E+01      0.0000000000E+00      hds                  
trgw_0_22_15:1.0      3.4029047110E+01      0.0000000000E+00      hds                  
trgw_0_22_15:122.0    3.4054925650E+01      0.0000000000E+00      hds                  
trgw_0_22_15:153.0    3.4075031090E+01      0.0000000000E+00      hds                  
trgw_0_22_15:183.0    3.3950610090E+01      0.0000000000E+00      hds                  
trgw_0_22_15:214.0    3.3931092660E+01      0.0000000000E+00      hds                  
trgw_0_22_15:245.0    3.3876635340E+01      0.0000000000E+00      hds                  
trgw_0_22_15:275.0    3.3867286360E+01      0.0000000000E+00      hds                  
trgw_0_22_15:306.0    3.3931825830E+01      0.0000000000E+00      hds                  
trgw_0_22_15:32.0     3.4001654650E+01      0.0000000000E+00      hds                  
trgw_0_22_15:336.0    3.3912386330E+01      0.0000000000E+00      hds                  
trgw_0_22_15:367.0    3.4031118920E+01      0.0000000000E+00      hds                  
trgw_0_22_15:398.0    3.3992998000E+01      0.0000000000E+00      hds                  
trgw_0_22_15:426.0    3.4129666660E+01      0.0000000000E+00      hds                  
trgw_0_22_15:457.0    3.4098855280E+01      0.0000000000E+00      hds                  
trgw_0_22_15:487.0    3.4029825370E+01      0.0000000000E+00      hds                  
trgw_0_22_15:518.0    3.3978909360E+01      0.0000000000E+00      hds                  
trgw_0_22_15:548.0    3.3930731200E+01      0.0000000000E+00      hds                  
trgw_0_22_15:579.0    3.3883741190E+01      0.0000000000E+00      hds                  
trgw_0_22_15:61.0     3.4117907020E+01      0.0000000000E+00      hds                  
trgw_0_22_15:610.0    3.3846606820E+01      0.0000000000E+00      hds                  
trgw_0_22_15:640.0    3.3813121550E+01      0.0000000000E+00      hds                  
trgw_0_22_15:671.0    3.3821429460E+01      0.0000000000E+00      hds                  
trgw_0_22_15:701.0    3.3849923720E+01      0.0000000000E+00      hds                  
trgw_0_22_15:732.0    3.3845634800E+01      0.0000000000E+00      hds                  
trgw_0_22_15:92.0     3.4125888500E+01      0.0000000000E+00      hds                  
trgw_0_24_4:1.0       3.4261261620E+01      0.0000000000E+00      hds                  
trgw_0_24_4:122.0     3.4503411250E+01      0.0000000000E+00      hds                  
trgw_0_24_4:153.0     3.4471801900E+01      0.0000000000E+00      hds                  
trgw_0_24_4:183.0     3.4376836230E+01      0.0000000000E+00      hds                  
trgw_0_24_4:214.0     3.4310673710E+01      0.0000000000E+00      hds                  
trgw_0_24_4:245.0     3.4249370840E+01      0.0000000000E+00      hds                  
trgw_0_24_4:275.0     3.4224233240E+01      0.0000000000E+00      hds                  
trgw_0_24_4:306.0     3.4248965420E+01      0.0000000000E+00      hds                  
trgw_0_24_4:32.0      3.4258615480E+01      0.0000000000E+00      hds                  
trgw_0_24_4:336.0     3.4305809170E+01      0.0000000000E+00      hds                  
trgw_0_24_4:367.0     3.4465840770E+01      0.0000000000E+00      hds                  
trgw_0_24_4:398.0     3.4424094890E+01      0.0000000000E+00      hds                  
trgw_0_24_4:426.0     3.4511257130E+01      0.0000000000E+00      hds                  
trgw_0_24_4:457.0     3.4515715970E+01      0.0000000000E+00      hds                  
trgw_0_24_4:487.0     3.4514951450E+01      0.0000000000E+00      hds                  
trgw_0_24_4:518.0     3.4449750470E+01      0.0000000000E+00      hds                  
trgw_0_24_4:548.0     3.4374582270E+01      0.0000000000E+00      hds                  
trgw_0_24_4:579.0     3.4308631700E+01      0.0000000000E+00      hds                  
trgw_0_24_4:61.0      3.4466175800E+01      0.0000000000E+00      hds                  
trgw_0_24_4:610.0     3.4236607550E+01      0.0000000000E+00      hds                  
trgw_0_24_4:640.0     3.4177687520E+01      0.0000000000E+00      hds                  
trgw_0_24_4:671.0     3.4142220660E+01      0.0000000000E+00      hds                  
trgw_0_24_4:701.0     3.4144834030E+01      0.0000000000E+00      hds                  
trgw_0_24_4:732.0     3.4119999900E+01      0.0000000000E+00      hds                  
trgw_0_24_4:92.0      3.4565402140E+01      0.0000000000E+00      hds                  
trgw_0_26_6:1.0       3.4052548570E+01      0.0000000000E+00      hds                  
trgw_0_26_6:122.0     3.4253692340E+01      0.0000000000E+00      hds                  
trgw_0_26_6:153.0     3.4201038650E+01      0.0000000000E+00      hds                  
trgw_0_26_6:183.0     3.4092569100E+01      0.0000000000E+00      hds                  
trgw_0_26_6:214.0     3.4025234340E+01      0.0000000000E+00      hds                  
trgw_0_26_6:245.0     3.3965444220E+01      0.0000000000E+00      hds                  
trgw_0_26_6:275.0     3.3949765970E+01      0.0000000000E+00      hds                  
trgw_0_26_6:306.0     3.3965420310E+01      0.0000000000E+00      hds                  
trgw_0_26_6:32.0      3.4052210730E+01      0.0000000000E+00      hds                  
trgw_0_26_6:336.0     3.4042757150E+01      0.0000000000E+00      hds                  
trgw_0_26_6:367.0     3.4173477930E+01      0.0000000000E+00      hds                  
trgw_0_26_6:398.0     3.4175481930E+01      0.0000000000E+00      hds                  
trgw_0_26_6:426.0     3.4279806020E+01      0.0000000000E+00      hds                  
trgw_0_26_6:457.0     3.4266410520E+01      0.0000000000E+00      hds                  
trgw_0_26_6:487.0     3.4240342650E+01      0.0000000000E+00      hds                  
trgw_0_26_6:518.0     3.4166210030E+01      0.0000000000E+00      hds                  
trgw_0_26_6:548.0     3.4090099590E+01      0.0000000000E+00      hds                  
trgw_0_26_6:579.0     3.4028826870E+01      0.0000000000E+00      hds                  
trgw_0_26_6:61.0      3.4216386560E+01      0.0000000000E+00      hds                  
trgw_0_26_6:610.0     3.3958027630E+01      0.0000000000E+00      hds                  
trgw_0_26_6:640.0     3.3892763310E+01      0.0000000000E+00      hds                  
trgw_0_26_6:671.0     3.3882162010E+01      0.0000000000E+00      hds                  
trgw_0_26_6:701.0     3.3890476610E+01      0.0000000000E+00      hds                  
trgw_0_26_6:732.0     3.3886955070E+01      0.0000000000E+00      hds                  
trgw_0_26_6:92.0      3.4308808010E+01      0.0000000000E+00      hds                  
trgw_0_29_15:1.0      3.3887481700E+01      0.0000000000E+00      hds                  
trgw_0_29_15:122.0    3.3915155010E+01      0.0000000000E+00      hds                  
trgw_0_29_15:153.0    3.3886793120E+01      0.0000000000E+00      hds                  
trgw_0_29_15:183.0    3.3823236140E+01      0.0000000000E+00      hds                  
trgw_0_29_15:214.0    3.3773997800E+01      0.0000000000E+00      hds                  
trgw_0_29_15:245.0    3.3720341950E+01      0.0000000000E+00      hds                  
trgw_0_29_15:275.0    3.3696306030E+01      0.0000000000E+00      hds                  
trgw_0_29_15:306.0    3.3714633420E+01      0.0000000000E+00      hds                  
trgw_0_29_15:32.0     3.3846443260E+01      0.0000000000E+00      hds                  
trgw_0_29_15:336.0    3.3725677010E+01      0.0000000000E+00      hds                  
trgw_0_29_15:367.0    3.3824258950E+01      0.0000000000E+00      hds                  
trgw_0_29_15:398.0    3.3811787270E+01      0.0000000000E+00      hds                  
trgw_0_29_15:426.0    3.3910750670E+01      0.0000000000E+00      hds                  
trgw_0_29_15:457.0    3.3939037800E+01      0.0000000000E+00      hds                  
trgw_0_29_15:487.0    3.3911379790E+01      0.0000000000E+00      hds                  
trgw_0_29_15:518.0    3.3881672120E+01      0.0000000000E+00      hds                  
trgw_0_29_15:548.0    3.3819279550E+01      0.0000000000E+00      hds                  
trgw_0_29_15:579.0    3.3761713630E+01      0.0000000000E+00      hds                  
trgw_0_29_15:61.0     3.3916911430E+01      0.0000000000E+00      hds                  
trgw_0_29_15:610.0    3.3711800110E+01      0.0000000000E+00      hds                  
trgw_0_29_15:640.0    3.3665586470E+01      0.0000000000E+00      hds                  
trgw_0_29_15:671.0    3.3649664490E+01      0.0000000000E+00      hds                  
trgw_0_29_15:701.0    3.3671083200E+01      0.0000000000E+00      hds                  
trgw_0_29_15:732.0    3.3663270040E+01      0.0000000000E+00      hds                  
trgw_0_29_15:92.0     3.3955353300E+01      0.0000000000E+00      hds                  
trgw_0_2_15:1.0       3.4527716490E+01      0.0000000000E+00      hds                  
trgw_0_2_15:122.0     3.4515050310E+01      0.0000000000E+00      hds                  
trgw_0_2_15:153.0     3.4501990760E+01      0.0000000000E+00      hds                  
trgw_0_2_15:183.0     3.4476718630E+01      0.0000000000E+00      hds                  
trgw_0_2_15:214.0     3.4436473880E+01      0.0000000000E+00      hds                  
trgw_0_2_15:245.0     3.4396429360E+01      0.0000000000E+00      hds                  
trgw_0_2_15:275.0     3.4366858910E+01      0.0000000000E+00      hds                  
trgw_0_2_15:306.0     3.4368143570E+01      0.0000000000E+00      hds                  
trgw_0_2_15:32.0      3.4489709140E+01      0.0000000000E+00      hds                  
trgw_0_2_15:336.0     3.4369848150E+01      0.0000000000E+00      hds                  
trgw_0_2_15:367.0     3.4484818820E+01      0.0000000000E+00      hds                  
trgw_0_2_15:398.0     3.4444161750E+01      0.0000000000E+00      hds                  
trgw_0_2_15:426.0     3.4522795320E+01      0.0000000000E+00      hds                  
trgw_0_2_15:457.0     3.4479720330E+01      0.0000000000E+00      hds                  
trgw_0_2_15:487.0     3.4458340320E+01      0.0000000000E+00      hds                  
trgw_0_2_15:518.0     3.4439094960E+01      0.0000000000E+00      hds                  
trgw_0_2_15:548.0     3.4405845060E+01      0.0000000000E+00      hds                  
trgw_0_2_15:579.0     3.4369862450E+01      0.0000000000E+00      hds                  
trgw_0_2_15:61.0      3.4552287750E+01      0.0000000000E+00      hds                  
trgw_0_2_15:610.0     3.4341211640E+01      0.0000000000E+00      hds                  
trgw_0_2_15:640.0     3.4313866200E+01      0.0000000000E+00      hds                  
trgw_0_2_15:671.0     3.4302792870E+01      0.0000000000E+00      hds                  
trgw_0_2_15:701.0     3.4297318470E+01      0.0000000000E+00      hds                  
trgw_0_2_15:732.0     3.4302081930E+01      0.0000000000E+00      hds                  
trgw_0_2_15:92.0      3.4566288650E+01      0.0000000000E+00      hds                  
trgw_0_2_9:1.0        3.5015913860E+01      0.0000000000E+00      hds                  
trgw_0_2_9:122.0      3.5043804230E+01      0.0000000000E+00      hds                  
trgw_0_2_9:153.0      3.5031165770E+01      0.0000000000E+00      hds                  
trgw_0_2_9:183.0      3.5009696160E+01      0.0000000000E+00      hds                  
trgw_0_2_9:214.0      3.4976203640E+01      0.0000000000E+00      hds                  
trgw_0_2_9:245.0      3.4933637970E+01      0.0000000000E+00      hds                  
trgw_0_2_9:275.0      3.4896546380E+01      0.0000000000E+00      hds                  
trgw_0_2_9:306.0      3.4880426890E+01      0.0000000000E+00      hds                  
trgw_0_2_9:32.0       3.4982001170E+01      0.0000000000E+00      hds                  
trgw_0_2_9:336.0      3.4848746050E+01      0.0000000000E+00      hds                  
trgw_0_2_9:367.0      3.4915064190E+01      0.0000000000E+00      hds                  
trgw_0_2_9:398.0      3.4900274400E+01      0.0000000000E+00      hds                  
trgw_0_2_9:426.0      3.4931737860E+01      0.0000000000E+00      hds                  
trgw_0_2_9:457.0      3.4970992810E+01      0.0000000000E+00      hds                  
trgw_0_2_9:487.0      3.4975703030E+01      0.0000000000E+00      hds                  
trgw_0_2_9:518.0      3.4956780120E+01      0.0000000000E+00      hds                  
trgw_0_2_9:548.0      3.4929681600E+01      0.0000000000E+00      hds                  
trgw_0_2_9:579.0      3.4885989300E+01      0.0000000000E+00      hds                  
trgw_0_2_9:61.0       3.5036787520E+01      0.0000000000E+00      hds                  
trgw_0_2_9:610.0      3.4838885010E+01      0.0000000000E+00      hds                  
trgw_0_2_9:640.0      3.4793972400E+01      0.0000000000E+00      hds                  
trgw_0_2_9:671.0      3.4750650100E+01      0.0000000000E+00      hds                  
trgw_0_2_9:701.0      3.4723717370E+01      0.0000000000E+00      hds                  
trgw_0_2_9:732.0      3.4713679490E+01      0.0000000000E+00      hds                  
trgw_0_2_9:92.0       3.5063661100E+01      0.0000000000E+00      hds                  
trgw_0_33_7:1.0       3.3688919400E+01      0.0000000000E+00      hds                  
trgw_0_33_7:122.0     3.3779347860E+01      0.0000000000E+00      hds                  
trgw_0_33_7:153.0     3.3721084930E+01      0.0000000000E+00      hds                  
trgw_0_33_7:183.0     3.3648087590E+01      0.0000000000E+00      hds                  
trgw_0_33_7:214.0     3.3590005990E+01      0.0000000000E+00      hds                  
trgw_0_33_7:245.0     3.3540552500E+01      0.0000000000E+00      hds                  
trgw_0_33_7:275.0     3.3531925140E+01      0.0000000000E+00      hds                  
trgw_0_33_7:306.0     3.3535339240E+01      0.0000000000E+00      hds                  
trgw_0_33_7:32.0      3.3651356200E+01      0.0000000000E+00      hds                  
trgw_0_33_7:336.0     3.3566602950E+01      0.0000000000E+00      hds                  
trgw_0_33_7:367.0     3.3670571610E+01      0.0000000000E+00      hds                  
trgw_0_33_7:398.0     3.3665935140E+01      0.0000000000E+00      hds                  
trgw_0_33_7:426.0     3.3783690060E+01      0.0000000000E+00      hds                  
trgw_0_33_7:457.0     3.3777898290E+01      0.0000000000E+00      hds                  
trgw_0_33_7:487.0     3.3760268800E+01      0.0000000000E+00      hds                  
trgw_0_33_7:518.0     3.3709349440E+01      0.0000000000E+00      hds                  
trgw_0_33_7:548.0     3.3649649370E+01      0.0000000000E+00      hds                  