pcf
* control data
             restart          estimation
         5       725         2         0         2
         4         2              single               point
   2.000000E+01  -3.000000E+00   3.000000E-01   1.000000E-02        -7
   1.000000E+01   1.000000E+01   1.000000E-03
   1.000000E-01
        20   1.000000E-02         3         3   1.000000E-02         3
         0         0         0
* singular value decomposition
         1
  10000000    1.000000E-06
1
* parameter groups
hk                     relative              1.0000000000E-02      0.0 switch                2.0000000000E+00      parabolic             1.0000000000E-05      5.0000000000E-01      smaller              
rch                    relative              1.0000000000E-02      0.0 switch                2.0000000000E+00      parabolic             1.0000000000E-05      5.0000000000E-01      smaller              
* parameter data
hk1                   log                   factor                5.0000000000E+00      5.0000000000E-02      5.0000000000E+01      hk                    1.0000000000E+00      0.0000000000E+00      1          
hk2                   log                   factor                5.0000000000E+00      5.0000000000E-02      5.0000000000E+01      hk                    1.0000000000E+00      0.0000000000E+00      1          
hk3                   log                   factor                5.0000000000E+00      5.0000000000E-02      5.0000000000E+01      hk                    1.0000000000E+00      0.0000000000E+00      1          
rch0                  fixed                 factor                1.0000000000E+00      5.0000000000E-01      2.0000000000E+00      rch                   1.0000000000E+00      0.0000000000E+00      1          
rch1                  fixed                 factor                1.0000000000E+00      5.0000000000E-01      2.0000000000E+00      rch                   1.0000000000E+00      0.0000000000E+00      1          
* observation groups
flux                 
hds                  
* observation data
gage_1:1.0            1.2053000000E+03      0.0000000000E+00      flux                 
gage_1:122.0          1.9834000000E+03      0.0000000000E+00      flux                 
gage_1:153.0          1.6848000000E+03      0.0000000000E+00      flux                 
gage_1:183.0          1.2774000000E+03      0.0000000000E+00      flux                 
gage_1:214.0          8.5597000000E+02      0.0000000000E+00      flux                 
gage_1:245.0          5.3949000000E+02      0.0000000000E+00      flux                 
gage_1:275.0          3.9508000000E+02      0.0000000000E+00      flux                 
gage_1:306.0          4.6234000000E+02      0.0000000000E+00      flux                 
gage_1:32.0           1.6366000000E+03      0.0000000000E+00      flux                 
gage_1:336.0          7.3364000000E+02      0.0000000000E+00      flux                 
gage_1:367.0          1.1428000000E+03      0.0000000000E+00      flux                 
gage_1:398.0          1.5664000000E+03      0.0000000000E+00      flux                 
gage_1:426.0          1.8587000000E+03      0.0000000000E+00      flux                 
gage_1:457.0          1.9748000000E+03      0.0000000000E+00      flux                 
gage_1:487.0          1.8596000000E+03      0.0000000000E+00      flux                 
gage_1:518.0          1.5391000000E+03      0.0000000000E+00      flux                 
gage_1:548.0          1.1281000000E+03      0.0000000000E+00      flux                 
gage_1:579.0          7.2660000000E+02      0.0000000000E+00      flux                 
gage_1:61.0           1.9385000000E+03      0.0000000000E+00      flux                 
gage_1:610.0          4.6581000000E+02      0.0000000000E+00      flux                 
gage_1:640.0          4.1438000000E+02      0.0000000000E+00      flux                 
gage_1:671.0          5.8584000000E+02      0.0000000000E+00      flux                 
gage_1:701.0          9.2959000000E+02      0.0000000000E+00      flux                 
gage_1:732.0          1.3605000000E+03      0.0000000000E+00      flux                 
gage_1:92.0           2.0736000000E+03      0.0000000000E+00      flux                 
headwater:1.0         -6.4410000000E+02     0.0000000000E+00      flux                 
headwater:122.0       -1.0830000000E+03     0.0000000000E+00      flux                 
headwater:153.0       -9.3359000000E+02     0.0000000000E+00      flux                 
headwater:183.0       -7.1896000000E+02     0.0000000000E+00      flux                 
headwater:214.0       -4.8715000000E+02     0.0000000000E+00      flux                 
headwater:245.0       -3.0295000000E+02     0.0000000000E+00      flux                 
headwater:275.0       -2.0612000000E+02     0.0000000000E+00      flux                 
headwater:306.0       -2.2605000000E+02     0.0000000000E+00      flux                 
headwater:32.0        -8.6529000000E+02     0.0000000000E+00      flux                 
headwater:336.0       -3.6051000000E+02     0.0000000000E+00      flux                 
headwater:367.0       -5.7878000000E+02     0.0000000000E+00      flux                 
headwater:398.0       -8.1394000000E+02     0.0000000000E+00      flux                 
headwater:426.0       -9.8402000000E+02     0.0000000000E+00      flux                 
headwater:457.0       -1.0642000000E+03     0.0000000000E+00      flux                 
headwater:487.0       -1.0176000000E+03     0.0000000000E+00      flux                 
headwater:518.0       -8.5506000000E+02     0.0000000000E+00      flux                 
headwater:548.0       -6.3393000000E+02     0.0000000000E+00      flux                 
headwater:579.0       -4.0757000000E+02     0.0000000000E+00      flux                 
headwater:61.0        -1.0340000000E+03     0.0000000000E+00      flux                 
headwater:610.0       -2.4973000000E+02     0.0000000000E+00      flux                 
headwater:640.0       -2.0410000000E+02     0.0000000000E+00      flux                 
headwater:671.0       -2.8279000000E+02     0.0000000000E+00      flux                 
headwater:701.0       -4.6183000000E+02     0.0000000000E+00      flux                 
headwater:732.0       -6.9703000000E+02     0.0000000000E+00      flux                 
headwater:92.0        -1.1187000000E+03     0.0000000000E+00      flux                 
tailwater:1.0         -4.7776000000E+02     0.0000000000E+00      flux                 
tailwater:122.0       -7.9489000000E+02     0.0000000000E+00      flux                 
tailwater:153.0       -6.7593000000E+02     0.0000000000E+00      flux                 
tailwater:183.0       -5.1145000000E+02     0.0000000000E+00      flux                 
tailwater:214.0       -3.3954000000E+02     0.0000000000E+00      flux                 
tailwater:245.0       -2.0934000000E+02     0.0000000000E+00      flux                 
tailwater:275.0       -1.4716000000E+02     0.0000000000E+00      flux                 
tailwater:306.0       -1.6724000000E+02     0.0000000000E+00      flux                 
tailwater:32.0        -6.3826000000E+02     0.0000000000E+00      flux                 
tailwater:336.0       -2.7256000000E+02     0.0000000000E+00      flux                 
tailwater:367.0       -4.3691000000E+02     0.0000000000E+00      flux                 
tailwater:398.0       -6.1152000000E+02     0.0000000000E+00      flux                 
tailwater:426.0       -7.3634000000E+02     0.0000000000E+00      flux                 
tailwater:457.0       -7.9103000000E+02     0.0000000000E+00      flux                 
tailwater:487.0       -7.5161000000E+02     0.0000000000E+00      flux                 
tailwater:518.0       -6.2453000000E+02     0.0000000000E+00      flux                 
tailwater:548.0       -4.5877000000E+02     0.0000000000E+00      flux                 
tailwater:579.0       -2.9371000000E+02     0.0000000000E+00      flux                 
tailwater:61.0        -7.6491000000E+02     0.0000000000E+00      flux                 
tailwater:610.0       -1.8399000000E+02     0.0000000000E+00      flux                 
tailwater:640.0       -1.5631000000E+02     0.0000000000E+00      flux                 
tailwater:671.0       -2.1847000000E+02     0.0000000000E+00      flux                 
tailwater:701.0       -3.5281000000E+02     0.0000000000E+00      flux                 
tailwater:732.0       -5.2755000000E+02     0.0000000000E+00      flux                 
tailwater:92.0        -8.2549000000E+02     0.0000000000E+00      flux                 
trgw_0_13_10:1.0      3.4263187170E+01      0.0000000000E+00      hds                  
trgw_0_13_10:122.0    3.4528010830E+01      0.0000000000E+00      hds                  
trgw_0_13_10:153.0    3.4444475340E+01      0.0000000000E+00      hds                  
trgw_0_13_10:183.0    3.4318759080E+01      0.0000000000E+00      hds                  
trgw_0_13_10:214.0    3.4178881580E+01      0.0000000000E+00      hds                  
trgw_0_13_10:245.0    3.4064557320E+01      0.0000000000E+00      hds                  
trgw_0_13_10:275.0    3.4002739710E+01      0.0000000000E+00      hds                  
trgw_0_13_10:306.0    3.4010259200E+01      0.0000000000E+00      hds                  
trgw_0_13_10:32.0     3.4386487780E+01      0.0000000000E+00      hds                  
trgw_0_13_10:336.0    3.4086626280E+01      0.0000000000E+00      hds                  
trgw_0_13_10:367.0    3.4214247060E+01      0.0000000000E+00      hds                  
trgw_0_13_10:398.0    3.4353909880E+01      0.0000000000E+00      hds                  
trgw_0_13_10:426.0    3.4456652560E+01      0.0000000000E+00      hds                  
trgw_0_13_10:457.0    3.4509140970E+01      0.0000000000E+00      hds                  
trgw_0_13_10:487.0    3.4487305560E+01      0.0000000000E+00      hds                  
trgw_0_13_10:518.0    3.4396291070E+01      0.0000000000E+00      hds                  
trgw_0_13_10:548.0    3.4266876900E+01      0.0000000000E+00      hds                  
trgw_0_13_10:579.0    3.4131045150E+01      0.0000000000E+00      hds                  
trgw_0_13_10:61.0     3.4487850270E+01      0.0000000000E+00      hds                  
trgw_0_13_10:610.0    3.4032099110E+01      0.0000000000E+00      hds                  
trgw_0_13_10:640.0    3.4000163350E+01      0.0000000000E+00      hds                  
trgw_0_13_10:671.0    3.4042596230E+01      0.0000000000E+00      hds                  
trgw_0_13_10:701.0    3.4145898190E+01      0.0000000000E+00      hds                  
trgw_0_13_10:732.0    3.4284477810E+01      0.0000000000E+00      hds                  
trgw_0_13_10:92.0     3.4543248280E+01      0.0000000000E+00      hds                  
trgw_0_15_16:1.0      3.4141598930E+01      0.0000000000E+00      hds                  
trgw_0_15_16:122.0    3.4360598790E+01      0.0000000000E+00      hds                  
trgw_0_15_16:153.0    3.4284208890E+01      0.0000000000E+00      hds                  
trgw_0_15_16:183.0    3.4174369390E+01      0.0000000000E+00      hds                  
trgw_0_15_16:214.0    3.4055597370E+01      0.0000000000E+00      hds                  
trgw_0_15_16:245.0    3.3961477840E+01      0.0000000000E+00      hds                  
trgw_0_15_16:275.0    3.3913671880E+01      0.0000000000E+00      hds                  
trgw_0_15_16:306.0    3.3926131770E+01      0.0000000000E+00      hds                  
trgw_0_15_16:32.0     3.4250496590E+01      0.0000000000E+00      hds                  
trgw_0_15_16:336.0    3.3997113390E+01      0.0000000000E+00      hds                  
trgw_0_15_16:367.0    3.4109495550E+01      0.0000000000E+00      hds                  
trgw_0_15_16:398.0    3.4228815600E+01      0.0000000000E+00      hds                  
trgw_0_15_16:426.0    3.4314156960E+01      0.0000000000E+00      hds                  
trgw_0_15_16:457.0    3.4353966580E+01      0.0000000000E+00      hds                  
trgw_0_15_16:487.0    3.4329904280E+01      0.0000000000E+00      hds                  
trgw_0_15_16:518.0    3.4247540900E+01      0.0000000000E+00      hds                  
trgw_0_15_16:548.0    3.4134922650E+01      0.0000000000E+00      hds                  
trgw_0_15_16:579.0    3.4019411040E+01      0.0000000000E+00      hds                  
trgw_0_15_16:61.0     3.4336216850E+01      0.0000000000E+00      hds                  
trgw_0_15_16:610.0    3.3938210970E+01      0.0000000000E+00      hds                  
trgw_0_15_16:640.0    3.3915934360E+01      0.0000000000E+00      hds                  
trgw_0_15_16:671.0    3.3958017910E+01      0.0000000000E+00      hds                  
trgw_0_15_16:701.0    3.4050533070E+01      0.0000000000E+00      hds                  
trgw_0_15_16:732.0    3.4170366830E+01      0.0000000000E+00      hds                  
trgw_0_15_16:92.0     3.4379138710E+01      0.0000000000E+00      hds                  
trgw_0_21_10:1.0      3.4150066860E+01      0.0000000000E+00      hds                  
trgw_0_21_10:122.0    3.4422424620E+01      0.0000000000E+00      hds                  
trgw_0_21_10:153.0    3.4334061180E+01      0.0000000000E+00      hds                  
trgw_0_21_10:183.0    3.4202335370E+01      0.0000000000E+00      hds                  
trgw_0_21_10:214.0    3.4056561000E+01      0.0000000000E+00      hds                  
trgw_0_21_10:245.0    3.3938025940E+01      0.0000000000E+00      hds                  
trgw_0_21_10:275.0    3.3874332690E+01      0.0000000000E+00      hds                  
trgw_0_21_10:306.0    3.3882527310E+01      0.0000000000E+00      hds                  
trgw_0_21_10:32.0     3.4277455270E+01      0.0000000000E+00      hds                  
trgw_0_21_10:336.0    3.3963091010E+01      0.0000000000E+00      hds                  
trgw_0_21_10:367.0    3.4097043180E+01      0.0000000000E+00      hds                  
trgw_0_21_10:398.0    3.4243414350E+01      0.0000000000E+00      hds                  
trgw_0_21_10:426.0    3.4351212920E+01      0.0000000000E+00      hds                  
trgw_0_21_10:457.0    3.4406324890E+01      0.0000000000E+00      hds                  
trgw_0_21_10:487.0    3.4384183770E+01      0.0000000000E+00      hds                  
trgw_0_21_10:518.0    3.4289196370E+01      0.0000000000E+00      hds                  
trgw_0_21_10:548.0    3.4154137260E+01      0.0000000000E+00      hds                  
trgw_0_21_10:579.0    3.4012232200E+01      0.0000000000E+00      hds                  
trgw_0_21_10:61.0     3.4382375110E+01      0.0000000000E+00      hds                  
trgw_0_21_10:610.0    3.3908774380E+01      0.0000000000E+00      hds                  
trgw_0_21_10:640.0    3.3875279830E+01      0.0000000000E+00      hds                  
trgw_0_21_10:671.0    3.3919437870E+01      0.0000000000E+00      hds                  
trgw_0_21_10:701.0    3.4027248890E+01      0.0000000000E+00      hds                  
trgw_0_21_10:732.0    3.4171970300E+01      0.0000000000E+00      hds                  
trgw_0_21_10:92.0     3.4438942610E+01      0.0000000000E+00      hds                  
trgw_0_22_15:1.0      3.3992380480E+01      0.0000000000E+00      hds                  
trgw_0_22_15:122.0    3.4173798820E+01      0.0000000000E+00      hds                  
trgw_0_22_15:153.0    3.4107237050E+01      0.0000000000E+00      hds                  
trgw_0_22_15:183.0    3.4013475120E+01      0.0000000000E+00      hds                  
trgw_0_22_15:214.0    3.3913297230E+01      0.0000000000E+00      hds                  
trgw_0_22_15:245.0    3.3834743660E+01      0.0000000000E+00      hds                  
trgw_0_22_15:275.0    3.3795617130E+01      0.0000000000E+00      hds                  
trgw_0_22_15:306.0    3.3808307400E+01      0.0000000000E+00      hds                  
trgw_0_22_15:32.0     3.4087585070E+01      0.0000000000E+00      hds                  
trgw_0_22_15:336.0    3.3871054880E+01      0.0000000000E+00      hds                  
trgw_0_22_15:367.0    3.3967828260E+01      0.0000000000E+00      hds                  
trgw_0_22_15:398.0    3.4069031340E+01      0.0000000000E+00      hds                  
trgw_0_22_15:426.0    3.4140487810E+01      0.0000000000E+00      hds                  
trgw_0_22_15:457.0    3.4172444520E+01      0.0000000000E+00      hds                  
trgw_0_22_15:487.0    3.4150350900E+01      0.0000000000E+00      hds                  
trgw_0_22_15:518.0    3.4079068220E+01      0.0000000000E+00      hds                  
trgw_0_22_15:548.0    3.3982872410E+01      0.0000000000E+00      hds                  
trgw_0_22_15:579.0    3.3885031660E+01      0.0000000000E+00      hds                  
trgw_0_22_15:61.0     3.4158109260E+01      0.0000000000E+00      hds                  
trgw_0_22_15:610.0    3.3816972950E+01      0.0000000000E+00      hds                  
trgw_0_22_15:640.0    3.3799846850E+01      0.0000000000E+00      hds                  
trgw_0_22_15:671.0    3.3837808090E+01      0.0000000000E+00      hds                  
trgw_0_22_15:701.0    3.3918058570E+01      0.0000000000E+00      hds                  
trgw_0_22_15:732.0    3.4020195620E+01      0.0000000000E+00      hds                  
trgw_0_22_15:92.0     3.4191730120E+01      0.0000000000E+00      hds                  
trgw_0_24_4:1.0       3.4316574740E+01      0.0000000000E+00      hds                  
trgw_0_24_4:122.0     3.4641451480E+01      0.0000000000E+00      hds                  
trgw_0_24_4:153.0     3.4563292150E+01      0.0000000000E+00      hds                  
trgw_0_24_4:183.0     3.4428604820E+01      0.0000000000E+00      hds                  
trgw_0_24_4:214.0     3.4266231570E+01      0.0000000000E+00      hds                  
trgw_0_24_4:245.0     3.4122541180E+01      0.0000000000E+00      hds                  
trgw_0_24_4:275.0     3.4033681420E+01      0.0000000000E+00      hds                  
trgw_0_24_4:306.0     3.4020366130E+01      0.0000000000E+00      hds                  
trgw_0_24_4:32.0      3.4442525580E+01      0.0000000000E+00      hds                  
trgw_0_24_4:336.0     3.4088176460E+01      0.0000000000E+00      hds                  
trgw_0_24_4:367.0     3.4221685330E+01      0.0000000000E+00      hds                  
trgw_0_24_4:398.0     3.4380152000E+01      0.0000000000E+00      hds                  
trgw_0_24_4:426.0     3.4506341520E+01      0.0000000000E+00      hds                  
trgw_0_24_4:457.0     3.4584444970E+01      0.0000000000E+00      hds                  
trgw_0_24_4:487.0     3.4581286220E+01      0.0000000000E+00      hds                  
trgw_0_24_4:518.0     3.4495130150E+01      0.0000000000E+00      hds                  
trgw_0_24_4:548.0     3.4357150630E+01      0.0000000000E+00      hds                  
trgw_0_24_4:579.0     3.4200801360E+01      0.0000000000E+00      hds                  
trgw_0_24_4:61.0      3.4560491660E+01      0.0000000000E+00      hds                  
trgw_0_24_4:610.0     3.4075953860E+01      0.0000000000E+00      hds                  
trgw_0_24_4:640.0     3.4021016970E+01      0.0000000000E+00      hds                  
trgw_0_24_4:671.0     3.4048409970E+01      0.0000000000E+00      hds                  
trgw_0_24_4:701.0     3.4149911720E+01      0.0000000000E+00      hds                  
trgw_0_24_4:732.0     3.4300965990E+01      0.0000000000E+00      hds                  
trgw_0_24_4:92.0      3.4638272890E+01      0.0000000000E+00      hds                  
trgw_0_26_6:1.0       3.4177206490E+01      0.0000000000E+00      hds                  
trgw_0_26_6:122.0     3.4483959690E+01      0.0000000000E+00      hds                  
trgw_0_26_6:153.0     3.4390955460E+01      0.0000000000E+00      hds                  
trgw_0_26_6:183.0     3.4248470030E+01      0.0000000000E+00      hds                  
trgw_0_26_6:214.0     3.4087709780E+01      0.0000000000E+00      hds                  
trgw_0_26_6:245.0     3.3953684800E+01      0.0000000000E+00      hds                  
trgw_0_26_6:275.0     3.3877761710E+01      0.0000000000E+00      hds                  
trgw_0_26_6:306.0     3.3880299330E+01      0.0000000000E+00      hds                  
trgw_0_26_6:32.0      3.4318135220E+01      0.0000000000E+00      hds                  
trgw_0_26_6:336.0     3.3963452110E+01      0.0000000000E+00      hds                  
trgw_0_26_6:367.0     3.4107798820E+01      0.0000000000E+00      hds                  
trgw_0_26_6:398.0     3.4269267300E+01      0.0000000000E+00      hds                  
trgw_0_26_6:426.0     3.4390849720E+01      0.0000000000E+00      hds                  
trgw_0_26_6:457.0     3.4456872760E+01      0.0000000000E+00      hds                  
trgw_0_26_6:487.0     3.4438413570E+01      0.0000000000E+00      hds                  
trgw_0_26_6:518.0     3.4338372110E+01      0.0000000000E+00      hds                  
trgw_0_26_6:548.0     3.4191638470E+01      0.0000000000E+00      hds                  
trgw_0_26_6:579.0     3.4034521820E+01      0.0000000000E+00      hds                  
trgw_0_26_6:61.0      3.4433115140E+01      0.0000000000E+00      hds                  
trgw_0_26_6:610.0     3.3916934580E+01      0.0000000000E+00      hds                  
trgw_0_26_6:640.0     3.3874874080E+01      0.0000000000E+00      hds                  
trgw_0_26_6:671.0     3.3917654410E+01      0.0000000000E+00      hds                  
trgw_0_26_6:701.0     3.4032183260E+01      0.0000000000E+00      hds                  
trgw_0_26_6:732.0     3.4190177340E+01      0.0000000000E+00      hds                  
trgw_0_26_6:92.0      3.4497733400E+01      0.0000000000E+00      hds                  
trgw_0_29_15:1.0      3.3909873540E+01      0.0000000000E+00      hds                  
trgw_0_29_15:122.0    3.4076497990E+01      0.0000000000E+00      hds                  
trgw_0_29_15:153.0    3.4016984400E+01      0.0000000000E+00      hds                  
trgw_0_29_15:183.0    3.3931636570E+01      0.0000000000E+00      hds                  
trgw_0_29_15:214.0    3.3839515940E+01      0.0000000000E+00      hds                  
trgw_0_29_15:245.0    3.3766765450E+01      0.0000000000E+00      hds                  
trgw_0_29_15:275.0    3.3730792110E+01      0.0000000000E+00      hds                  
trgw_0_29_15:306.0    3.3741814830E+01      0.0000000000E+00      hds                  
trgw_0_29_15:32.0     3.3992787250E+01      0.0000000000E+00      hds                  
trgw_0_29_15:336.0    3.3798602620E+01      0.0000000000E+00      hds                  
trgw_0_29_15:367.0    3.3886162060E+01      0.0000000000E+00      hds                  
trgw_0_29_15:398.0    3.3977768960E+01      0.0000000000E+00      hds                  
trgw_0_29_15:426.0    3.4042564570E+01      0.0000000000E+00      hds                  
trgw_0_29_15:457.0    3.4071892250E+01      0.0000000000E+00      hds                  
trgw_0_29_15:487.0    3.4052466940E+01      0.0000000000E+00      hds                  
trgw_0_29_15:518.0    3.3988513600E+01      0.0000000000E+00      hds                  
trgw_0_29_15:548.0    3.3901789370E+01      0.0000000000E+00      hds                  
trgw_0_29_15:579.0    3.3813209350E+01      0.0000000000E+00      hds                  
trgw_0_29_15:61.0     3.4058266080E+01      0.0000000000E+00      hds                  
trgw_0_29_15:610.0    3.3751132970E+01      0.0000000000E+00      hds                  
trgw_0_29_15:640.0    3.3735007740E+01      0.0000000000E+00      hds                  
trgw_0_29_15:671.0    3.3769044400E+01      0.0000000000E+00      hds                  
trgw_0_29_15:701.0    3.3841471930E+01      0.0000000000E+00      hds                  
trgw_0_29_15:732.0    3.3933821260E+01      0.0000000000E+00      hds                  
trgw_0_29_15:92.0     3.4090936920E+01      0.0000000000E+00      hds                  
trgw_0_2_15:1.0       3.4290696130E+01      0.0000000000E+00      hds                  
trgw_0_2_15:122.0     3.4461174110E+01      0.0000000000E+00      hds                  
trgw_0_2_15:153.0     3.4415824370E+01      0.0000000000E+00      hds                  
trgw_0_2_15:183.0     3.4341769590E+01      0.0000000000E+00      hds                  
trgw_0_2_15:214.0     3.4255464600E+01      0.0000000000E+00      hds                  
trgw_0_2_15:245.0     3.4182137280E+01      0.0000000000E+00      hds                  
trgw_0_2_15:275.0     3.4140876700E+01      0.0000000000E+00      hds                  
trgw_0_2_15:306.0     3.4141655610E+01      0.0000000000E+00      hds                  
trgw_0_2_15:32.0      3.4362614090E+01      0.0000000000E+00      hds                  
trgw_0_2_15:336.0     3.4183519940E+01      0.0000000000E+00      hds                  
trgw_0_2_15:367.0     3.4257038460E+01      0.0000000000E+00      hds                  
trgw_0_2_15:398.0     3.4339514000E+01      0.0000000000E+00      hds                  
trgw_0_2_15:426.0     3.4401580570E+01      0.0000000000E+00      hds                  
trgw_0_2_15:457.0     3.4435308210E+01      0.0000000000E+00      hds                  
trgw_0_2_15:487.0     3.4425037210E+01      0.0000000000E+00      hds                  
trgw_0_2_15:518.0     3.4373414560E+01      0.0000000000E+00      hds                  
trgw_0_2_15:548.0     3.4297674190E+01      0.0000000000E+00      hds                  
trgw_0_2_15:579.0     3.4216390960E+01      0.0000000000E+00      hds                  
trgw_0_2_15:61.0      3.4425611230E+01      0.0000000000E+00      hds                  
trgw_0_2_15:610.0     3.4155717480E+01      0.0000000000E+00      hds                  
trgw_0_2_15:640.0     3.4134186580E+01      0.0000000000E+00      hds                  
trgw_0_2_15:671.0     3.4156660420E+01      0.0000000000E+00      hds                  
trgw_0_2_15:701.0     3.4215872480E+01      0.0000000000E+00      hds                  
trgw_0_2_15:732.0     3.4297247600E+01      0.0000000000E+00      hds                  
trgw_0_2_15:92.0      3.4464375340E+01      0.0000000000E+00      hds                  
trgw_0_2_9:1.0        3.4587362240E+01      0.0000000000E+00      hds                  
trgw_0_2_9:122.0      3.4867020680E+01      0.0000000000E+00      hds                  
trgw_0_2_9:153.0      3.4812872760E+01      0.0000000000E+00      hds                  
trgw_0_2_9:183.0      3.4708539080E+01      0.0000000000E+00      hds                  
trgw_0_2_9:214.0      3.4576213020E+01      0.0000000000E+00      hds                  
trgw_0_2_9:245.0      3.4454456750E+01      0.0000000000E+00      hds                  
trgw_0_2_9:275.0      3.4376360130E+01      0.0000000000E+00      hds                  
trgw_0_2_9:306.0      3.4359414060E+01      0.0000000000E+00      hds                  
trgw_0_2_9:32.0       3.4686657150E+01      0.0000000000E+00      hds                  
trgw_0_2_9:336.0      3.4407083390E+01      0.0000000000E+00      hds                  
trgw_0_2_9:367.0      3.4508803040E+01      0.0000000000E+00      hds                  
trgw_0_2_9:398.0      3.4632998360E+01      0.0000000000E+00      hds                  
trgw_0_2_9:426.0      3.4733712340E+01      0.0000000000E+00      hds                  
trgw_0_2_9:457.0      3.4798492290E+01      0.0000000000E+00      hds                  
trgw_0_2_9:487.0      3.4798969950E+01      0.0000000000E+00      hds                  
trgw_0_2_9:518.0      3.4733960500E+01      0.0000000000E+00      hds                  
trgw_0_2_9:548.0      3.4626147930E+01      0.0000000000E+00      hds                  
trgw_0_2_9:579.0      3.4501598200E+01      0.0000000000E+00      hds                  
trgw_0_2_9:61.0       3.4784685820E+01      0.0000000000E+00      hds                  
trgw_0_2_9:610.0      3.4400039380E+01      0.0000000000E+00      hds                  
trgw_0_2_9:640.0      3.4352754590E+01      0.0000000000E+00      hds                  
trgw_0_2_9:671.0      3.4370610930E+01      0.0000000000E+00      hds                  
trgw_0_2_9:701.0      3.4448214590E+01      0.0000000000E+00      hds                  
trgw_0_2_9:732.0      3.4566824280E+01      0.0000000000E+00      hds                  
trgw_0_2_9:92.0       3.4855489130E+01      0.0000000000E+00      hds                  
trgw_0_33_7:1.0       3.3985754650E+01      0.0000000000E+00      hds                  
trgw_0_33_7:122.0     3.4226022930E+01      0.0000000000E+00      hds                  
trgw_0_33_7:153.0     3.4144326500E+01      0.0000000000E+00      hds                  
trgw_0_33_7:183.0     3.4025001970E+01      0.0000000000E+00      hds                  
trgw_0_33_7:214.0     3.3894981130E+01      0.0000000000E+00      hds                  
trgw_0_33_7:245.0     3.3790946130E+01      0.0000000000E+00      hds                  
trgw_0_33_7:275.0     3.3737079070E+01      0.0000000000E+00      hds                  
trgw_0_33_7:306.0     3.3747845260E+01      0.0000000000E+00      hds                  
trgw_0_33_7:32.0      3.4102891720E+01      0.0000000000E+00      hds                  
trgw_0_33_7:336.0     3.3822636610E+01      0.0000000000E+00      hds                  
trgw_0_33_7:367.0     3.3943863200E+01      0.0000000000E+00      hds                  
trgw_0_33_7:398.0     3.4074407320E+01      0.0000000000E+00      hds                  
trgw_0_33_7:426.0     3.4168877240E+01      0.0000000000E+00      hds                  
trgw_0_33_7:457.0     3.4215068020E+01      0.0000000000E+00      hds                  
trgw_0_33_7:487.0     3.4191777780E+01      0.0000000000E+00      hds                  
trgw_0_33_7:518.0     3.4104452630E+01      0.0000000000E+00      hds                  
trgw_0_33_7:548.0     3.3982615970E+01      0.0000000000E+00      hds                  