pcf
* control data
             restart          estimation
         5       725         2         0         2
         4         2              single               point
   2.000000E+01  -3.000000E+00   3.000000E-01   1.000000E-02        -7
   1.000000E+01   1.000000E+01   1.000000E-03
   1.000000E-01
        20   1.000000E-02         3         3   1.000000E-02         3
         0         0         0
* singular value decomposition
         1
  10000000    1.000000E-06
1
* parameter groups
hk                     relative              1.0000000000E-02      0.0 switch                2.0000000000E+00      parabolic             1.0000000000E-05      5.0000000000E-01      smaller              
rch                    relative              1.0000000000E-02      0.0 switch                2.0000000000E+00      parabolic             1.0000000000E-05      5.0000000000E-01      smaller              
* parameter data
hk1                   log                   factor                5.0000000000E+00      5.0000000000E-02      5.0000000000E+01      hk                    1.0000000000E+00      0.0000000000E+00      1          
hk2                   log                   factor                5.0000000000E+00      5.0000000000E-02      5.0000000000E+01      hk                    1.0000000000E+00      0.0000000000E+00      1          
hk3                   log                   factor                5.0000000000E+00      5.0000000000E-02      5.0000000000E+01      hk                    1.0000000000E+00      0.0000000000E+00      1          
rch0                  fixed                 factor                1.0000000000E+00      5.0000000000E-01      2.0000000000E+00      rch                   1.0000000000E+00      0.0000000000E+00      1          
rch1                  fixed                 factor                1.0000000000E+00      5.0000000000E-01      2.0000000000E+00      rch                   1.0000000000E+00      0.0000000000E+00      1          
* observation groups
flux                 
hds                  
* observation data
gage_1:1.0            1.8744000000E+03      0.0000000000E+00      flux                 
gage_1:122.0          1.5737000000E+03      0.0000000000E+00      flux                 
gage_1:153.0          1.2989000000E+03      0.0000000000E+00      flux                 
gage_1:183.0          1.0355000000E+03      0.0000000000E+00      flux                 
gage_1:214.0          6.2062000000E+02      0.0000000000E+00      flux                 
gage_1:245.0          3.0849000000E+02      0.0000000000E+00      flux                 
gage_1:275.0          1.7392000000E+02      0.0000000000E+00      flux                 
gage_1:306.0          1.1064000000E+02      0.0000000000E+00      flux                 
gage_1:32.0           1.9856000000E+03      0.0000000000E+00      flux                 
gage_1:336.0          3.4803000000E+02      0.0000000000E+00      flux                 
gage_1:367.0          5.3640000000E+02      0.0000000000E+00      flux                 
gage_1:398.0          8.0668000000E+02      0.0000000000E+00      flux                 
gage_1:426.0          9.0606000000E+02      0.0000000000E+00      flux                 
gage_1:457.0          9.4363000000E+02      0.0000000000E+00      flux                 
gage_1:487.0          9.4537000000E+02      0.0000000000E+00      flux                 
gage_1:518.0          6.5948000000E+02      0.0000000000E+00      flux                 
gage_1:548.0          3.7088000000E+02      0.0000000000E+00      flux                 
gage_1:579.0          8.7066000000E+01      0.0000000000E+00      flux                 
gage_1:61.0           1.9671000000E+03      0.0000000000E+00      flux                 
gage_1:610.0          0.0000000000E+00      0.0000000000E+00      flux                 
gage_1:640.0          0.0000000000E+00      0.0000000000E+00      flux                 
gage_1:671.0          0.0000000000E+00      0.0000000000E+00      flux                 
gage_1:701.0          2.3420000000E+02      0.0000000000E+00      flux                 
gage_1:732.0          3.7974000000E+02      0.0000000000E+00      flux                 
gage_1:92.0           1.7554000000E+03      0.0000000000E+00      flux                 
headwater:1.0         -1.2055000000E+03     0.0000000000E+00      flux                 
headwater:122.0       -9.0237000000E+02     0.0000000000E+00      flux                 
headwater:153.0       -7.5578000000E+02     0.0000000000E+00      flux                 
headwater:183.0       -6.8181000000E+02     0.0000000000E+00      flux                 
headwater:214.0       -4.7688000000E+02     0.0000000000E+00      flux                 
headwater:245.0       -2.9869000000E+02     0.0000000000E+00      flux                 
headwater:275.0       -2.3123000000E+02     0.0000000000E+00      flux                 
headwater:306.0       -1.6659000000E+02     0.0000000000E+00      flux                 
headwater:32.0        -1.1441000000E+03     0.0000000000E+00      flux                 
headwater:336.0       -2.3659000000E+02     0.0000000000E+00      flux                 
headwater:367.0       -3.2218000000E+02     0.0000000000E+00      flux                 
headwater:398.0       -4.2486000000E+02     0.0000000000E+00      flux                 
headwater:426.0       -5.1217000000E+02     0.0000000000E+00      flux                 
headwater:457.0       -5.5303000000E+02     0.0000000000E+00      flux                 
headwater:487.0       -5.1520000000E+02     0.0000000000E+00      flux                 
headwater:518.0       -4.2860000000E+02     0.0000000000E+00      flux                 
headwater:548.0       -2.9334000000E+02     0.0000000000E+00      flux                 
headwater:579.0       -1.7016000000E+02     0.0000000000E+00      flux                 
headwater:61.0        -1.0435000000E+03     0.0000000000E+00      flux                 
headwater:610.0       -2.8194000000E+01     0.0000000000E+00      flux                 
headwater:640.0       1.0059000000E+01      0.0000000000E+00      flux                 
headwater:671.0       -7.2357000000E+01     0.0000000000E+00      flux                 
headwater:701.0       -1.6299000000E+02     0.0000000000E+00      flux                 
headwater:732.0       -2.9580000000E+02     0.0000000000E+00      flux                 
headwater:92.0        -9.8514000000E+02     0.0000000000E+00      flux                 
tailwater:1.0         -5.5507000000E+02     0.0000000000E+00      flux                 
tailwater:122.0       -5.3972000000E+02     0.0000000000E+00      flux                 
tailwater:153.0       -4.5652000000E+02     0.0000000000E+00      flux                 
tailwater:183.0       -2.9382000000E+02     0.0000000000E+00      flux                 
tailwater:214.0       -8.9965000000E+01     0.0000000000E+00      flux                 
tailwater:245.0       4.7847000000E+01      0.0000000000E+00      flux                 
tailwater:275.0       1.4508000000E+02      0.0000000000E+00      flux                 
tailwater:306.0       1.6456000000E+02      0.0000000000E+00      flux                 
tailwater:32.0        -6.5524000000E+02     0.0000000000E+00      flux                 
tailwater:336.0       2.6657000000E+01      0.0000000000E+00      flux                 
tailwater:367.0       -2.2702000000E+01     0.0000000000E+00      flux                 
tailwater:398.0       -2.2237000000E+02     0.0000000000E+00      flux                 
tailwater:426.0       -2.1236000000E+02     0.0000000000E+00      flux                 
tailwater:457.0       -2.3159000000E+02     0.0000000000E+00      flux                 
tailwater:487.0       -3.1955000000E+02     0.0000000000E+00      flux                 
tailwater:518.0       -1.4646000000E+02     0.0000000000E+00      flux                 
tailwater:548.0       -7.7664000000E+00     0.0000000000E+00      flux                 
tailwater:579.0       1.3811000000E+02      0.0000000000E+00      flux                 
tailwater:61.0        -7.0807000000E+02     0.0000000000E+00      flux                 
tailwater:610.0       6.2821000000E+01      0.0000000000E+00      flux                 
tailwater:640.0       4.2387000000E+01      0.0000000000E+00      flux                 
tailwater:671.0       1.6491000000E+02      0.0000000000E+00      flux                 
tailwater:701.0       8.5853000000E+01      0.0000000000E+00      flux                 
tailwater:732.0       5.9294000000E+01      0.0000000000E+00      flux                 
tailwater:92.0        -6.3145000000E+02     0.0000000000E+00      flux                 
trgw_0_13_10:1.0      3.5245068120E+01      0.0000000000E+00      hds                  
trgw_0_13_10:122.0    3.4917512270E+01      0.0000000000E+00      hds                  
trgw_0_13_10:153.0    3.4734834660E+01      0.0000000000E+00      hds                  
trgw_0_13_10:183.0    3.4646543820E+01      0.0000000000E+00      hds                  
trgw_0_13_10:214.0    3.4417829150E+01      0.0000000000E+00      hds                  
trgw_0_13_10:245.0    3.4217484500E+01      0.0000000000E+00      hds                  
trgw_0_13_10:275.0    3.4110738570E+01      0.0000000000E+00      hds                  
trgw_0_13_10:306.0    3.4069263170E+01      0.0000000000E+00      hds                  
trgw_0_13_10:32.0     3.5194304970E+01      0.0000000000E+00      hds                  
trgw_0_13_10:336.0    3.4144324980E+01      0.0000000000E+00      hds                  
trgw_0_13_10:367.0    3.4205668900E+01      0.0000000000E+00      hds                  
trgw_0_13_10:398.0    3.4347645610E+01      0.0000000000E+00      hds                  
trgw_0_13_10:426.0    3.4519713560E+01      0.0000000000E+00      hds                  
trgw_0_13_10:457.0    3.4574186780E+01      0.0000000000E+00      hds                  
trgw_0_13_10:487.0    3.4497588530E+01      0.0000000000E+00      hds                  
trgw_0_13_10:518.0    3.4382648110E+01      0.0000000000E+00      hds                  
trgw_0_13_10:548.0    3.4231844990E+01      0.0000000000E+00      hds                  
trgw_0_13_10:579.0    3.4054095480E+01      0.0000000000E+00      hds                  
trgw_0_13_10:61.0     3.5083512420E+01      0.0000000000E+00      hds                  
trgw_0_13_10:610.0    3.3922970280E+01      0.0000000000E+00      hds                  
trgw_0_13_10:640.0    3.3828160160E+01      0.0000000000E+00      hds                  
trgw_0_13_10:671.0    3.3920137030E+01      0.0000000000E+00      hds                  
trgw_0_13_10:701.0    3.4055071050E+01      0.0000000000E+00      hds                  
trgw_0_13_10:732.0    3.4179240660E+01      0.0000000000E+00      hds                  
trgw_0_13_10:92.0     3.5058159050E+01      0.0000000000E+00      hds                  
trgw_0_15_16:1.0      3.5033238050E+01      0.0000000000E+00      hds                  
trgw_0_15_16:122.0    3.4771687920E+01      0.0000000000E+00      hds                  
trgw_0_15_16:153.0    3.4583919370E+01      0.0000000000E+00      hds                  
trgw_0_15_16:183.0    3.4474763110E+01      0.0000000000E+00      hds                  
trgw_0_15_16:214.0    3.4268688820E+01      0.0000000000E+00      hds                  
trgw_0_15_16:245.0    3.4085615210E+01      0.0000000000E+00      hds                  
trgw_0_15_16:275.0    3.3990145460E+01      0.0000000000E+00      hds                  
trgw_0_15_16:306.0    3.3963304680E+01      0.0000000000E+00      hds                  
trgw_0_15_16:32.0     3.4985695820E+01      0.0000000000E+00      hds                  
trgw_0_15_16:336.0    3.4084230920E+01      0.0000000000E+00      hds                  
trgw_0_15_16:367.0    3.4147386770E+01      0.0000000000E+00      hds                  
trgw_0_15_16:398.0    3.4315788310E+01      0.0000000000E+00      hds                  
trgw_0_15_16:426.0    3.4396158430E+01      0.0000000000E+00      hds                  
trgw_0_15_16:457.0    3.4464987660E+01      0.0000000000E+00      hds                  
trgw_0_15_16:487.0    3.4374803550E+01      0.0000000000E+00      hds                  
trgw_0_15_16:518.0    3.4266010750E+01      0.0000000000E+00      hds                  
trgw_0_15_16:548.0    3.4100827350E+01      0.0000000000E+00      hds                  
trgw_0_15_16:579.0    3.3940186900E+01      0.0000000000E+00      hds                  
trgw_0_15_16:61.0     3.4898427190E+01      0.0000000000E+00      hds                  
trgw_0_15_16:610.0    3.3802663830E+01      0.0000000000E+00      hds                  
trgw_0_15_16:640.0    3.3745533940E+01      0.0000000000E+00      hds                  
trgw_0_15_16:671.0    3.3868603520E+01      0.0000000000E+00      hds                  
trgw_0_15_16:701.0    3.3980141950E+01      0.0000000000E+00      hds                  
trgw_0_15_16:732.0    3.4101176470E+01      0.0000000000E+00      hds                  
trgw_0_15_16:92.0     3.4846382970E+01      0.0000000000E+00      hds                  
trgw_0_21_10:1.0      3.4619616890E+01      0.0000000000E+00      hds                  
trgw_0_21_10:122.0    3.4540749780E+01      0.0000000000E+00      hds                  
trgw_0_21_10:153.0    3.4425004050E+01      0.0000000000E+00      hds                  
trgw_0_21_10:183.0    3.4266867490E+01      0.0000000000E+00      hds                  
trgw_0_21_10:214.0    3.4042449010E+01      0.0000000000E+00      hds                  
trgw_0_21_10:245.0    3.3878026460E+01      0.0000000000E+00      hds                  
trgw_0_21_10:275.0    3.3773991530E+01      0.0000000000E+00      hds                  
trgw_0_21_10:306.0    3.3811644850E+01      0.0000000000E+00      hds                  
trgw_0_21_10:32.0     3.4664882110E+01      0.0000000000E+00      hds                  
trgw_0_21_10:336.0    3.3931552310E+01      0.0000000000E+00      hds                  
trgw_0_21_10:367.0    3.3923868010E+01      0.0000000000E+00      hds                  
trgw_0_21_10:398.0    3.4123923850E+01      0.0000000000E+00      hds                  
trgw_0_21_10:426.0    3.4168057950E+01      0.0000000000E+00      hds                  
trgw_0_21_10:457.0    3.4216297220E+01      0.0000000000E+00      hds                  
trgw_0_21_10:487.0    3.4210236780E+01      0.0000000000E+00      hds                  
trgw_0_21_10:518.0    3.4079373950E+01      0.0000000000E+00      hds                  
trgw_0_21_10:548.0    3.3933573280E+01      0.0000000000E+00      hds                  
trgw_0_21_10:579.0    3.3776436010E+01      0.0000000000E+00      hds                  
trgw_0_21_10:61.0     3.4687417160E+01      0.0000000000E+00      hds                  
trgw_0_21_10:610.0    3.3632543660E+01      0.0000000000E+00      hds                  
trgw_0_21_10:640.0    3.3556480240E+01      0.0000000000E+00      hds                  
trgw_0_21_10:671.0    3.3699577540E+01      0.0000000000E+00      hds                  
trgw_0_21_10:701.0    3.3771212060E+01      0.0000000000E+00      hds                  
trgw_0_21_10:732.0    3.3847554180E+01      0.0000000000E+00      hds                  
trgw_0_21_10:92.0     3.4675515440E+01      0.0000000000E+00      hds                  
trgw_0_22_15:1.0      3.4407206460E+01      0.0000000000E+00      hds                  
trgw_0_22_15:122.0    3.4272559660E+01      0.0000000000E+00      hds                  
trgw_0_22_15:153.0    3.4195288390E+01      0.0000000000E+00      hds                  
trgw_0_22_15:183.0    3.4092740050E+01      0.0000000000E+00      hds                  
trgw_0_22_15:214.0    3.3926299090E+01      0.0000000000E+00      hds                  
trgw_0_22_15:245.0    3.3812510310E+01      0.0000000000E+00      hds                  
trgw_0_22_15:275.0    3.3743669490E+01      0.0000000000E+00      hds                  
trgw_0_22_15:306.0    3.3738484420E+01      0.0000000000E+00      hds                  
trgw_0_22_15:32.0     3.4433484080E+01      0.0000000000E+00      hds                  
trgw_0_22_15:336.0    3.3874128080E+01      0.0000000000E+00      hds                  
trgw_0_22_15:367.0    3.3862612960E+01      0.0000000000E+00      hds                  
trgw_0_22_15:398.0    3.4047028670E+01      0.0000000000E+00      hds                  
trgw_0_22_15:426.0    3.4042635390E+01      0.0000000000E+00      hds                  
trgw_0_22_15:457.0    3.4071460260E+01      0.0000000000E+00      hds                  
trgw_0_22_15:487.0    3.4065152310E+01      0.0000000000E+00      hds                  
trgw_0_22_15:518.0    3.3965854330E+01      0.0000000000E+00      hds                  
trgw_0_22_15:548.0    3.3850772690E+01      0.0000000000E+00      hds                  
trgw_0_22_15:579.0    3.3733734260E+01      0.0000000000E+00      hds                  
trgw_0_22_15:61.0     3.4386750620E+01      0.0000000000E+00      hds                  
trgw_0_22_15:610.0    3.3646925960E+01      0.0000000000E+00      hds                  
trgw_0_22_15:640.0    3.3595672520E+01      0.0000000000E+00      hds                  
trgw_0_22_15:671.0    3.3676003020E+01      0.0000000000E+00      hds                  
trgw_0_22_15:701.0    3.3770826420E+01      0.0000000000E+00      hds                  
trgw_0_22_15:732.0    3.3817475840E+01      0.0000000000E+00      hds                  
trgw_0_22_15:92.0     3.4357676970E+01      0.0000000000E+00      hds                  
trgw_0_24_4:1.0       3.4442786030E+01      0.0000000000E+00      hds                  
trgw_0_24_4:122.0     3.4590528540E+01      0.0000000000E+00      hds                  
trgw_0_24_4:153.0     3.4461724150E+01      0.0000000000E+00      hds                  
trgw_0_24_4:183.0     3.4277224170E+01      0.0000000000E+00      hds                  
trgw_0_24_4:214.0     3.4043262850E+01      0.0000000000E+00      hds                  
trgw_0_24_4:245.0     3.3902167330E+01      0.0000000000E+00      hds                  
trgw_0_24_4:275.0     3.3771237460E+01      0.0000000000E+00      hds                  
trgw_0_24_4:306.0     3.3741559650E+01      0.0000000000E+00      hds                  
trgw_0_24_4:32.0      3.4526215740E+01      0.0000000000E+00      hds                  
trgw_0_24_4:336.0     3.3837324690E+01      0.0000000000E+00      hds                  
trgw_0_24_4:367.0     3.3880337280E+01      0.0000000000E+00      hds                  
trgw_0_24_4:398.0     3.4111239880E+01      0.0000000000E+00      hds                  
trgw_0_24_4:426.0     3.4121643430E+01      0.0000000000E+00      hds                  
trgw_0_24_4:457.0     3.4095994800E+01      0.0000000000E+00      hds                  
trgw_0_24_4:487.0     3.4147602410E+01      0.0000000000E+00      hds                  
trgw_0_24_4:518.0     3.4019382580E+01      0.0000000000E+00      hds                  
trgw_0_24_4:548.0     3.3907997150E+01      0.0000000000E+00      hds                  
trgw_0_24_4:579.0     3.3744413300E+01      0.0000000000E+00      hds                  
trgw_0_24_4:61.0      3.4622952630E+01      0.0000000000E+00      hds                  
trgw_0_24_4:610.0     3.3601881850E+01      0.0000000000E+00      hds                  
trgw_0_24_4:640.0     3.3523330020E+01      0.0000000000E+00      hds                  
trgw_0_24_4:671.0     3.3613850930E+01      0.0000000000E+00      hds                  
trgw_0_24_4:701.0     3.3723914450E+01      0.0000000000E+00      hds                  
trgw_0_24_4:732.0     3.3769500360E+01      0.0000000000E+00      hds                  
trgw_0_24_4:92.0      3.4685557560E+01      0.0000000000E+00      hds                  
trgw_0_26_6:1.0       3.4322599320E+01      0.0000000000E+00      hds                  
trgw_0_26_6:122.0     3.4433421840E+01      0.0000000000E+00      hds                  
trgw_0_26_6:153.0     3.4299917650E+01      0.0000000000E+00      hds                  
trgw_0_26_6:183.0     3.4138411100E+01      0.0000000000E+00      hds                  
trgw_0_26_6:214.0     3.3898225700E+01      0.0000000000E+00      hds                  
trgw_0_26_6:245.0     3.3759968090E+01      0.0000000000E+00      hds                  
trgw_0_26_6:275.0     3.3648311540E+01      0.0000000000E+00      hds                  
trgw_0_26_6:306.0     3.3625966190E+01      0.0000000000E+00      hds                  
trgw_0_26_6:32.0      3.4407735500E+01      0.0000000000E+00      hds                  
trgw_0_26_6:336.0     3.3738956430E+01      0.0000000000E+00      hds                  
trgw_0_26_6:367.0     3.3815242440E+01      0.0000000000E+00      hds                  
trgw_0_26_6:398.0     3.4002287810E+01      0.0000000000E+00      hds                  
trgw_0_26_6:426.0     3.4013887680E+01      0.0000000000E+00      hds                  
trgw_0_26_6:457.0     3.4013981260E+01      0.0000000000E+00      hds                  
trgw_0_26_6:487.0     3.4046332250E+01      0.0000000000E+00      hds                  
trgw_0_26_6:518.0     3.3923271920E+01      0.0000000000E+00      hds                  
trgw_0_26_6:548.0     3.3793003040E+01      0.0000000000E+00      hds                  
trgw_0_26_6:579.0     3.3622685630E+01      0.0000000000E+00      hds                  
trgw_0_26_6:61.0      3.4498030690E+01      0.0000000000E+00      hds                  
trgw_0_26_6:610.0     3.3491476330E+01      0.0000000000E+00      hds                  
trgw_0_26_6:640.0     3.3424113370E+01      0.0000000000E+00      hds                  
trgw_0_26_6:671.0     3.3513526900E+01      0.0000000000E+00      hds                  
trgw_0_26_6:701.0     3.3647292590E+01      0.0000000000E+00      hds                  
trgw_0_26_6:732.0     3.3713161920E+01      0.0000000000E+00      hds                  
trgw_0_26_6:92.0      3.4509572310E+01      0.0000000000E+00      hds                  
trgw_0_29_15:1.0      3.4084172180E+01      0.0000000000E+00      hds                  
trgw_0_29_15:122.0    3.4087670690E+01      0.0000000000E+00      hds                  
trgw_0_29_15:153.0    3.4037675010E+01      0.0000000000E+00      hds                  
trgw_0_29_15:183.0    3.3912963530E+01      0.0000000000E+00      hds                  
trgw_0_29_15:214.0    3.3771128940E+01      0.0000000000E+00      hds                  
trgw_0_29_15:245.0    3.3665073610E+01      0.0000000000E+00      hds                  
trgw_0_29_15:275.0    3.3600022100E+01      0.0000000000E+00      hds                  
trgw_0_29_15:306.0    3.3573592810E+01      0.0000000000E+00      hds                  
trgw_0_29_15:32.0     3.4156880100E+01      0.0000000000E+00      hds                  
trgw_0_29_15:336.0    3.3668724430E+01      0.0000000000E+00      hds                  
trgw_0_29_15:367.0    3.3720408260E+01      0.0000000000E+00      hds                  
trgw_0_29_15:398.0    3.3858644440E+01      0.0000000000E+00      hds                  
trgw_0_29_15:426.0    3.3848855280E+01      0.0000000000E+00      hds                  
trgw_0_29_15:457.0    3.3872184950E+01      0.0000000000E+00      hds                  
trgw_0_29_15:487.0    3.3917381970E+01      0.0000000000E+00      hds                  
trgw_0_29_15:518.0    3.3801713030E+01      0.0000000000E+00      hds                  
trgw_0_29_15:548.0    3.3709381920E+01      0.0000000000E+00      hds                  
trgw_0_29_15:579.0    3.3593823830E+01      0.0000000000E+00      hds                  
trgw_0_29_15:61.0     3.4226345640E+01      0.0000000000E+00      hds                  
trgw_0_29_15:610.0    3.3466724580E+01      0.0000000000E+00      hds                  
trgw_0_29_15:640.0    3.3381317270E+01      0.0000000000E+00      hds                  
trgw_0_29_15:671.0    3.3474551090E+01      0.0000000000E+00      hds                  
trgw_0_29_15:701.0    3.3657392080E+01      0.0000000000E+00      hds                  
trgw_0_29_15:732.0    3.3660993420E+01      0.0000000000E+00      hds                  
trgw_0_29_15:92.0     3.4154835080E+01      0.0000000000E+00      hds                  
trgw_0_2_15:1.0       3.5079563620E+01      0.0000000000E+00      hds                  
trgw_0_2_15:122.0     3.4789034050E+01      0.0000000000E+00      hds                  
trgw_0_2_15:153.0     3.4688691500E+01      0.0000000000E+00      hds                  
trgw_0_2_15:183.0     3.4658647110E+01      0.0000000000E+00      hds                  
trgw_0_2_15:214.0     3.4477234660E+01      0.0000000000E+00      hds                  
trgw_0_2_15:245.0     3.4322753510E+01      0.0000000000E+00      hds                  
trgw_0_2_15:275.0     3.4261557550E+01      0.0000000000E+00      hds                  
trgw_0_2_15:306.0     3.4187182910E+01      0.0000000000E+00      hds                  
trgw_0_2_15:32.0      3.5008735810E+01      0.0000000000E+00      hds                  
trgw_0_2_15:336.0     3.4216030550E+01      0.0000000000E+00      hds                  
trgw_0_2_15:367.0     3.4327262590E+01      0.0000000000E+00      hds                  
trgw_0_2_15:398.0     3.4345499120E+01      0.0000000000E+00      hds                  
trgw_0_2_15:426.0     3.4428855380E+01      0.0000000000E+00      hds                  
trgw_0_2_15:457.0     3.4450411320E+01      0.0000000000E+00      hds                  
trgw_0_2_15:487.0     3.4442664110E+01      0.0000000000E+00      hds                  
trgw_0_2_15:518.0     3.4383211950E+01      0.0000000000E+00      hds                  
trgw_0_2_15:548.0     3.4308087090E+01      0.0000000000E+00      hds                  
trgw_0_2_15:579.0     3.4208970750E+01      0.0000000000E+00      hds                  
trgw_0_2_15:61.0      3.4918804020E+01      0.0000000000E+00      hds                  
trgw_0_2_15:610.0     3.4087028830E+01      0.0000000000E+00      hds                  
trgw_0_2_15:640.0     3.4059199890E+01      0.0000000000E+00      hds                  
trgw_0_2_15:671.0     3.4099406350E+01      0.0000000000E+00      hds                  
trgw_0_2_15:701.0     3.4157816430E+01      0.0000000000E+00      hds                  
trgw_0_2_15:732.0     3.4310063020E+01      0.0000000000E+00      hds                  
trgw_0_2_15:92.0      3.4854818770E+01      0.0000000000E+00      hds                  
trgw_0_2_9:1.0        3.5635301740E+01      0.0000000000E+00      hds                  
trgw_0_2_9:122.0      3.5186385690E+01      0.0000000000E+00      hds                  
trgw_0_2_9:153.0      3.5080193910E+01      0.0000000000E+00      hds                  
trgw_0_2_9:183.0      3.5023996290E+01      0.0000000000E+00      hds                  
trgw_0_2_9:214.0      3.4792015550E+01      0.0000000000E+00      hds                  
trgw_0_2_9:245.0      3.4563948860E+01      0.0000000000E+00      hds                  
trgw_0_2_9:275.0      3.4443875500E+01      0.0000000000E+00      hds                  
trgw_0_2_9:306.0      3.4323162930E+01      0.0000000000E+00      hds                  
trgw_0_2_9:32.0       3.5490352150E+01      0.0000000000E+00      hds                  
trgw_0_2_9:336.0      3.4347373880E+01      0.0000000000E+00      hds                  
trgw_0_2_9:367.0      3.4463162680E+01      0.0000000000E+00      hds                  
trgw_0_2_9:398.0      3.4492758590E+01      0.0000000000E+00      hds                  
trgw_0_2_9:426.0      3.4689180120E+01      0.0000000000E+00      hds                  
trgw_0_2_9:457.0      3.4688207590E+01      0.0000000000E+00      hds                  
trgw_0_2_9:487.0      3.4685468330E+01      0.0000000000E+00      hds                  
trgw_0_2_9:518.0      3.4623524010E+01      0.0000000000E+00      hds                  
trgw_0_2_9:548.0      3.4529880490E+01      0.0000000000E+00      hds                  
trgw_0_2_9:579.0      3.4367813590E+01      0.0000000000E+00      hds                  
trgw_0_2_9:61.0       3.5386754310E+01      0.0000000000E+00      hds                  
trgw_0_2_9:610.0      3.4209257070E+01      0.0000000000E+00      hds                  
trgw_0_2_9:640.0      3.4126464730E+01      0.0000000000E+00      hds                  
trgw_0_2_9:671.0      3.4170748810E+01      0.0000000000E+00      hds                  
trgw_0_2_9:701.0      3.4253302870E+01      0.0000000000E+00      hds                  
trgw_0_2_9:732.0      3.4470089720E+01      0.0000000000E+00      hds                  
trgw_0_2_9:92.0       3.5312387630E+01      0.0000000000E+00      hds                  
trgw_0_33_7:1.0       3.3905927970E+01      0.0000000000E+00      hds                  
trgw_0_33_7:122.0     3.4066478720E+01      0.0000000000E+00      hds                  
trgw_0_33_7:153.0     3.3926120670E+01      0.0000000000E+00      hds                  
trgw_0_33_7:183.0     3.3773926790E+01      0.0000000000E+00      hds                  
trgw_0_33_7:214.0     3.3598910920E+01      0.0000000000E+00      hds                  
trgw_0_33_7:245.0     3.3482883270E+01      0.0000000000E+00      hds                  
trgw_0_33_7:275.0     3.3393669010E+01      0.0000000000E+00      hds                  
trgw_0_33_7:306.0     3.3373075550E+01      0.0000000000E+00      hds                  
trgw_0_33_7:32.0      3.3995150970E+01      0.0000000000E+00      hds                  
trgw_0_33_7:336.0     3.3453250590E+01      0.0000000000E+00      hds                  
trgw_0_33_7:367.0     3.3556088880E+01      0.0000000000E+00      hds                  
trgw_0_33_7:398.0     3.3687736350E+01      0.0000000000E+00      hds                  
trgw_0_33_7:426.0     3.3714221490E+01      0.0000000000E+00      hds                  
trgw_0_33_7:457.0     3.3702135110E+01      0.0000000000E+00      hds                  
trgw_0_33_7:487.0     3.3780548070E+01      0.0000000000E+00      hds                  
trgw_0_33_7:518.0     3.3638696390E+01      0.0000000000E+00      hds                  
trgw_0_33_7:548.0     3.3527038430E+01      0.0000000000E+00      hds                  