# # MPBAS package for MODPATH 7, generated by Flopy.
1                   # DEFAULTIFACECOUNT
RCH                 # PACKAGE LABEL
6                   # DEFAULT IFACE VALUE
OPEN/CLOSE       freyberg_mp.ne_layer1.txt               1     (FREE) -1 porosity layer 1              
OPEN/CLOSE       freyberg_mp.ne_layer2.txt               1     (FREE) -1 porosity layer 2              
OPEN/CLOSE       freyberg_mp.ne_layer3.txt               1     (FREE) -1 porosity layer 3              
