# MPSIM package for MODPATH 7, generated by Flopy.
freyberg_mp.mpnam
freyberg_mp.mplst
1 1 2 2 0 0
freyberg_mp.mpend
0
1
0
2
1
1
1
pg1
1
0.0
EXTERNAL pm.pg1.sloc
